@<TRIPOS>MOLECULE
/home/yujie/leadopt/data/result/selection/sEH/lig_8e.sdf:1
56   59    1
SMALL
USER_CHARGES


@<TRIPOS>ATOM
      1 O1         -1.3341  -15.7330   25.8973 O.2       1 UNK         0.0000 
      2 C2         -1.0447  -15.1474   26.9395 C.2       1 UNK         0.0000 
      3 C3          0.0242  -14.0714   26.9380 C.ar      1 UNK         0.0000 
      4 C4          0.4949  -13.4342   28.1005 C.ar      1 UNK         0.0000 
      5 C5          1.4167  -12.3813   28.0732 C.ar      1 UNK         0.0000 
      6 C6          1.8484  -11.9450   26.8155 C.ar      1 UNK         0.0000 
      7 N7          2.6986  -10.9199   26.4081 N.pl3     1 UNK         0.0000 
      8 C8          3.4545   -9.9994   27.2395 C.3       1 UNK         0.0000 
      9 C9          4.9663  -10.1330   27.0635 C.ar      1 UNK         0.0000 
     10 C10         5.7451  -10.5806   28.1313 C.ar      1 UNK         0.0000 
     11 C11         7.1317  -10.5949   28.0270 C.ar      1 UNK         0.0000 
     12 F12         7.8678  -10.9329   29.0970 F         1 UNK         0.0000 
     13 C13         7.7598  -10.2255   26.8401 C.ar      1 UNK         0.0000 
     14 C14         6.9937   -9.7993   25.7590 C.ar      1 UNK         0.0000 
     15 C15         5.6059   -9.7331   25.8784 C.ar      1 UNK         0.0000 
     16 C16         2.7080  -10.8769   25.0349 C.ar      1 UNK         0.0000 
     17 C17         1.9705  -11.9029   24.5345 C.ar      1 UNK         0.0000 
     18 C18         1.3967  -12.5836   25.6278 C.ar      1 UNK         0.0000 
     19 C19         0.5272  -13.6641   25.7020 C.ar      1 UNK         0.0000 
     20 N20        -1.7421  -15.3607   28.0596 N.am      1 UNK         0.0000 
     21 C21        -2.9218  -16.2190   28.1783 C.3       1 UNK         0.0000 
     22 C22        -2.7062  -17.7365   28.0249 C.ar      1 UNK         0.0000 
     23 C23        -3.6911  -18.5757   27.4599 C.ar      1 UNK         0.0000 
     24 C24        -4.9567  -18.0128   26.7964 C.3       1 UNK         0.0000 
     25 F25        -5.6820  -17.3329   27.6820 F         1 UNK         0.0000 
     26 F26        -4.6261  -17.1998   25.7920 F         1 UNK         0.0000 
     27 F27        -5.7292  -18.9714   26.2857 F         1 UNK         0.0000 
     28 C28        -3.5028  -19.9665   27.4968 C.ar      1 UNK         0.0000 
     29 C29        -2.3367  -20.5375   28.0093 C.ar      1 UNK         0.0000 
     30 N30        -2.2872  -21.9456   28.0331 N.am      1 UNK         0.0000 
     31 C31        -1.2332  -22.7754   28.2202 C.2       1 UNK         0.0000 
     32 C32        -1.5288  -24.2891   28.2494 C.3       1 UNK         0.0000 
     33 F33        -2.8437  -24.5287   28.2771 F         1 UNK         0.0000 
     34 F34        -0.9627  -24.8340   29.3276 F         1 UNK         0.0000 
     35 F35        -1.0095  -24.8564   27.1603 F         1 UNK         0.0000 
     36 O36        -0.0652  -22.4013   28.3247 O.2       1 UNK         0.0000 
     37 C37        -1.3295  -19.6927   28.4902 C.ar      1 UNK         0.0000 
     38 C38        -1.5162  -18.3104   28.4937 C.ar      1 UNK         0.0000 
     39 H39         0.1494  -13.7328   29.0758 H         1 UNK         0.0000 
     40 H40         1.7461  -11.9143   28.9897 H         1 UNK         0.0000 
     41 H41         3.1395   -8.9861   26.9862 H         1 UNK         0.0000 
     42 H42         3.1706  -10.1450   28.2827 H         1 UNK         0.0000 
     43 H43         5.2870  -10.8603   29.0678 H         1 UNK         0.0000 
     44 H44         8.8366  -10.2459   26.7682 H         1 UNK         0.0000 
     45 H45         7.4751   -9.4875   24.8435 H         1 UNK         0.0000 
     46 H46         5.0512   -9.3268   25.0499 H         1 UNK         0.0000 
     47 H47         3.2518  -10.1150   24.5018 H         1 UNK         0.0000 
     48 H48         1.8234  -12.1225   23.4972 H         1 UNK         0.0000 
     49 H49         0.2097  -14.1333   24.7829 H         1 UNK         0.0000 
     50 H50        -1.4278  -14.9331   28.9346 H         1 UNK         0.0000 
     51 H51        -3.6757  -15.8284   27.4970 H         1 UNK         0.0000 
     52 H52        -3.3357  -16.0563   29.1746 H         1 UNK         0.0000 
     53 H53        -4.2680  -20.6184   27.0992 H         1 UNK         0.0000 
     54 H54        -3.1720  -22.3986   27.8572 H         1 UNK         0.0000 
     55 H55        -0.4123  -20.0833   28.9067 H         1 UNK         0.0000 
     56 H56        -0.7405  -17.6845   28.9129 H         1 UNK         0.0000 
@<TRIPOS>BOND
     1    1    2 2    
     2    2    3 1    
     3    2   20 am   BACKBONE|DICT|INTERRES
     4    3   19 ar   
     5    3    4 ar   
     6    4    5 ar   
     7    4   39 1    
     8    5    6 ar   
     9    5   40 1    
    10    6    7 ar   
    11    6   18 ar   
    12    7    8 1    
    13    7   16 ar   
    14    8    9 1    
    15    8   41 1    
    16    8   42 1    
    17    9   15 ar   
    18    9   10 ar   
    19   10   11 ar   
    20   10   43 1    
    21   11   12 1    
    22   11   13 ar   
    23   13   14 ar   
    24   13   44 1    
    25   14   15 ar   
    26   14   45 1    
    27   15   46 1    
    28   16   17 ar   
    29   16   47 1    
    30   17   18 ar   
    31   17   48 1    
    32   18   19 ar   
    33   19   49 1    
    34   20   21 1    
    35   20   50 1    
    36   21   22 1    
    37   21   51 1    
    38   21   52 1    
    39   22   38 ar   
    40   22   23 ar   
    41   23   24 1    
    42   23   28 ar   
    43   24   25 1    
    44   24   26 1    
    45   24   27 1    
    46   28   29 ar   
    47   28   53 1    
    48   29   30 1    
    49   29   37 ar   
    50   30   31 am   BACKBONE|DICT|INTERRES
    51   30   54 1    
    52   31   32 1    
    53   31   36 2    
    54   32   33 1    
    55   32   34 1    
    56   32   35 1    
    57   37   38 ar   
    58   37   55 1    
    59   38   56 1    
@<TRIPOS>SUBSTRUCTURE
     1 UNK         1 GROUP             0       ****    0 ROOT    
