@<TRIPOS>MOLECULE
/home/yujie/leadopt/data/result/selection/sEH/lig_11b.sdf:1
50   53    1
SMALL
USER_CHARGES


@<TRIPOS>ATOM
      1 O1         -1.3200  -15.3329   25.6952 O.2       1 UNK         0.0000 
      2 C2         -0.9991  -14.8259   26.7742 C.2       1 UNK         0.0000 
      3 C3          0.1289  -13.8152   26.8634 C.ar      1 UNK         0.0000 
      4 C4          0.9243  -13.5668   25.7369 C.ar      1 UNK         0.0000 
      5 C5          1.9518  -12.6227   25.7296 C.ar      1 UNK         0.0000 
      6 C6          2.1760  -11.9123   26.9152 C.ar      1 UNK         0.0000 
      7 N7          3.1051  -10.9324   27.2325 N.pl3     1 UNK         0.0000 
      8 C8          4.0940  -10.3696   26.3280 C.3       1 UNK         0.0000 
      9 C9          2.9075  -10.5328   28.5337 C.ar      1 UNK         0.0000 
     10 C10         1.8730  -11.2465   29.0950 C.ar      1 UNK         0.0000 
     11 C11         1.3888  -12.1335   28.0835 C.ar      1 UNK         0.0000 
     12 C12         0.3703  -13.0914   28.0440 C.ar      1 UNK         0.0000 
     13 N13        -1.6871  -15.0897   27.8972 N.am      1 UNK         0.0000 
     14 C14        -2.8793  -15.9349   27.9674 C.3       1 UNK         0.0000 
     15 C15        -2.6424  -17.4483   28.0430 C.ar      1 UNK         0.0000 
     16 C16        -3.6414  -18.3607   27.6471 C.ar      1 UNK         0.0000 
     17 C17        -5.0011  -17.8815   27.1113 C.3       1 UNK         0.0000 
     18 F18        -5.8860  -18.8733   27.0375 F         1 UNK         0.0000 
     19 F19        -5.5253  -16.9383   27.8971 F         1 UNK         0.0000 
     20 F20        -4.8508  -17.3793   25.8854 F         1 UNK         0.0000 
     21 C21        -3.3931  -19.7388   27.7716 C.ar      1 UNK         0.0000 
     22 C22        -2.1921  -20.2412   28.2973 C.ar      1 UNK         0.0000 
     23 N23        -1.8817  -21.5605   28.5188 N.2       1 UNK         0.0000 
     24 S24        -2.8485  -22.7826   28.3687 S.o2      1 UNK         0.0000 
     25 C25        -2.7297  -23.1870   26.5153 C.3       1 UNK         0.0000 
     26 C26        -1.5014  -23.9495   26.0689 C.3       1 UNK         0.0000 
     27 C27        -2.8482  -24.6382   26.1054 C.3       1 UNK         0.0000 
     28 O28        -2.3248  -23.9576   29.0736 O.2       1 UNK         0.0000 
     29 O29        -4.2589  -22.4670   28.6223 O.2       1 UNK         0.0000 
     30 C30        -1.2171  -19.3092   28.6515 C.ar      1 UNK         0.0000 
     31 C31        -1.4230  -17.9414   28.5149 C.ar      1 UNK         0.0000 
     32 H32         0.7451  -14.1183   24.8225 H         1 UNK         0.0000 
     33 H33         2.5428  -12.4543   24.8420 H         1 UNK         0.0000 
     34 H34         3.5879   -9.7827   25.5616 H         1 UNK         0.0000 
     35 H35         4.7896   -9.7328   26.8768 H         1 UNK         0.0000 
     36 H36         4.6524  -11.1775   25.8553 H         1 UNK         0.0000 
     37 H37         3.5318   -9.7598   28.9572 H         1 UNK         0.0000 
     38 H38         1.5085  -11.1376   30.1053 H         1 UNK         0.0000 
     39 H39        -0.2271  -13.2432   28.9298 H         1 UNK         0.0000 
     40 H40        -1.3289  -14.7841   28.8052 H         1 UNK         0.0000 
     41 H41        -3.4411  -15.6352   28.8545 H         1 UNK         0.0000 
     42 H42        -3.5015  -15.7165   27.0997 H         1 UNK         0.0000 
     43 H43        -4.1598  -20.4259   27.4559 H         1 UNK         0.0000 
     44 H44        -3.1498  -22.3939   25.8989 H         1 UNK         0.0000 
     45 H45        -1.0559  -23.7293   25.0990 H         1 UNK         0.0000 
     46 H46        -0.7506  -24.2050   26.8171 H         1 UNK         0.0000 
     47 H47        -3.0443  -25.3851   26.8751 H         1 UNK         0.0000 
     48 H48        -3.3290  -24.8826   25.1599 H         1 UNK         0.0000 
     49 H49        -0.2795  -19.6519   29.0710 H         1 UNK         0.0000 
     50 H50        -0.6362  -17.2688   28.8262 H         1 UNK         0.0000 
@<TRIPOS>BOND
     1    1    2 2    
     2    2    3 1    
     3    2   13 am   BACKBONE|DICT|INTERRES
     4    3   12 ar   
     5    3    4 ar   
     6    4    5 ar   
     7    4   32 1    
     8    5    6 ar   
     9    5   33 1    
    10    6    7 ar   
    11    6   11 ar   
    12    7    8 1    
    13    7    9 ar   
    14    8   34 1    
    15    8   35 1    
    16    8   36 1    
    17    9   10 ar   
    18    9   37 1    
    19   10   11 ar   
    20   10   38 1    
    21   11   12 ar   
    22   12   39 1    
    23   13   14 1    
    24   13   40 1    
    25   14   15 1    
    26   14   41 1    
    27   14   42 1    
    28   15   31 ar   
    29   15   16 ar   
    30   16   17 1    
    31   16   21 ar   
    32   17   18 1    
    33   17   19 1    
    34   17   20 1    
    35   21   22 ar   
    36   21   43 1    
    37   22   23 1    
    38   22   30 ar   
    39   23   24 1    
    40   24   25 1    
    41   24   28 2    
    42   24   29 2    
    43   25   27 1    
    44   25   26 1    
    45   25   44 1    
    46   26   27 1    
    47   26   45 1    
    48   26   46 1    
    49   27   47 1    
    50   27   48 1    
    51   30   31 ar   
    52   30   49 1    
    53   31   50 1    
@<TRIPOS>SUBSTRUCTURE
     1 UNK         1 GROUP             0       ****    0 ROOT    
