/home/yujie/leadopt/data/result/selection/sEH/lig_11h.sdf:1
                    3D
 Schrodinger Suite 2020-3.
 60 63  0  0  1  0            999 V2000
   -1.3295  -15.5585   25.7860 O   0  0  0  0  0  0
   -1.0303  -14.9153   26.7870 C   0  0  0  0  0  0
    0.1238  -13.9419   26.7623 C   0  0  0  0  0  0
    0.8849  -13.8622   25.5920 C   0  0  0  0  0  0
    1.8927  -12.9324   25.4114 C   0  0  0  0  0  0
    2.1210  -12.0274   26.4458 C   0  0  0  0  0  0
    1.4097  -12.1067   27.6848 C   0  0  0  0  0  0
    1.9246  -11.0645   28.5181 C   0  0  0  0  0  0
    2.8619  -10.3799   27.7736 C   0  0  0  0  0  0
    2.9732  -10.9411   26.5196 N   0  0  0  0  0  0
    4.0712  -10.3880   25.3071 S   0  0  0  0  0  0
    5.6981  -11.2443   25.8036 C   0  0  0  0  0  0
    6.1542  -10.8157   27.2096 C   0  0  0  0  0  0
    6.7576  -10.9491   24.7337 C   0  0  0  0  0  0
    4.1728   -8.9413   25.4966 O   0  0  0  0  0  0
    3.6175  -10.9351   24.0250 O   0  0  0  0  0  0
    0.4196  -13.0929   27.8450 C   0  0  0  0  0  0
   -1.7645  -14.9972   27.8961 N   0  0  0  0  0  0
   -2.9041  -15.8977   28.0876 C   0  0  0  0  0  0
   -2.5551  -17.3965   28.1158 C   0  0  0  0  0  0
   -3.4246  -18.3951   27.6162 C   0  0  0  0  0  0
   -4.7937  -18.0450   27.0210 C   0  0  0  0  0  0
   -4.6403  -17.3496   25.8938 F   0  0  0  0  0  0
   -5.5263  -19.1252   26.7426 F   0  0  0  0  0  0
   -5.4792  -17.3101   27.8950 F   0  0  0  0  0  0
   -3.0339  -19.7432   27.6924 C   0  0  0  0  0  0
   -1.8034  -20.1107   28.2454 C   0  0  0  0  0  0
   -1.3660  -21.4358   28.3758 N   0  0  0  0  0  0
   -2.4106  -22.8613   28.3303 S   0  0  0  0  0  0
   -2.4997  -23.2040   26.4681 C   0  0  0  0  0  0
   -1.3579  -23.9982   25.8820 C   0  0  0  0  0  0
   -2.7292  -24.6252   26.0233 C   0  0  0  0  0  0
   -1.6474  -23.9303   28.9833 O   0  0  0  0  0  0
   -3.7338  -22.4737   28.8324 O   0  0  0  0  0  0
   -0.9483  -19.1149   28.6973 C   0  0  0  0  0  0
   -1.3163  -17.7787   28.6420 C   0  0  0  0  0  0
    0.6848  -14.5228   24.7604 H   0  0  0  0  0  0
    2.4253  -12.8994   24.4750 H   0  0  0  0  0  0
    1.6329  -10.8294   29.5311 H   0  0  0  0  0  0
    3.4703   -9.5228   28.0315 H   0  0  0  0  0  0
    5.4803  -12.3105   25.8040 H   0  0  0  0  0  0
    7.1257  -11.2421   27.4648 H   0  0  0  0  0  0
    5.4553  -11.1484   27.9727 H   0  0  0  0  0  0
    6.2407   -9.7349   27.2856 H   0  0  0  0  0  0
    7.6949  -11.4587   24.9510 H   0  0  0  0  0  0
    6.4231  -11.2828   23.7528 H   0  0  0  0  0  0
    6.9652   -9.8837   24.6624 H   0  0  0  0  0  0
   -0.1272  -13.1517   28.7817 H   0  0  0  0  0  0
   -1.3691  -14.6376   28.7693 H   0  0  0  0  0  0
   -3.3720  -15.6455   29.0381 H   0  0  0  0  0  0
   -3.6465  -15.6680   27.3277 H   0  0  0  0  0  0
   -3.6932  -20.5094   27.3138 H   0  0  0  0  0  0
   -0.4296  -21.5867   28.7227 H   0  0  0  0  0  0
   -2.9542  -22.3778   25.9223 H   0  0  0  0  0  0
   -0.9864  -23.7295   24.8924 H   0  0  0  0  0  0
   -0.5554  -24.3283   26.5411 H   0  0  0  0  0  0
   -2.8888  -25.3934   26.7804 H   0  0  0  0  0  0
   -3.3209  -24.7984   25.1241 H   0  0  0  0  0  0
   -0.0052  -19.3755   29.1529 H   0  0  0  0  0  0
   -0.6347  -17.0398   29.0388 H   0  0  0  0  0  0
  1  2  2  0  0  0
  2  3  1  0  0  0
  2 18  1  0  0  0
  3 17  1  0  0  0
  3  4  2  0  0  0
  4  5  1  0  0  0
  4 37  1  0  0  0
  5  6  2  0  0  0
  5 38  1  0  0  0
  6 10  1  0  0  0
  6  7  1  0  0  0
  7  8  1  0  0  0
  7 17  2  0  0  0
  8  9  2  0  0  0
  8 39  1  0  0  0
  9 10  1  0  0  0
  9 40  1  0  0  0
 10 11  1  0  0  0
 11 12  1  0  0  0
 11 15  2  0  0  0
 11 16  2  0  0  0
 12 13  1  0  0  0
 12 14  1  0  0  0
 12 41  1  0  0  0
 13 42  1  0  0  0
 13 43  1  0  0  0
 13 44  1  0  0  0
 14 45  1  0  0  0
 14 46  1  0  0  0
 14 47  1  0  0  0
 17 48  1  0  0  0
 18 19  1  0  0  0
 18 49  1  0  0  0
 19 20  1  0  0  0
 19 50  1  0  0  0
 19 51  1  0  0  0
 20 36  1  0  0  0
 20 21  2  0  0  0
 21 22  1  0  0  0
 21 26  1  0  0  0
 22 23  1  0  0  0
 22 24  1  0  0  0
 22 25  1  0  0  0
 26 27  2  0  0  0
 26 52  1  0  0  0
 27 28  1  0  0  0
 27 35  1  0  0  0
 28 29  1  0  0  0
 28 53  1  0  0  0
 29 30  1  0  0  0
 29 33  2  0  0  0
 29 34  2  0  0  0
 30 32  1  0  0  0
 30 31  1  0  0  0
 30 54  1  0  0  0
 31 32  1  0  0  0
 31 55  1  0  0  0
 31 56  1  0  0  0
 32 57  1  0  0  0
 32 58  1  0  0  0
 35 36  2  0  0  0
 35 59  1  0  0  0
 36 60  1  0  0  0
M  END
> <s_m_source_file>
/home/yujie/leadopt/data/result/selection/sEH/lig_11h.sdf

> <i_m_source_file_index>
1

> <i_lp_mmshare_version>
51139

> <i_f3d_flags>
0

> <s_epik_input>
W0NIM11bQ0hdKFtDSDNdKVMoPU8pKD1PKW4xW2NIXVtjSF1jKGMxMilbY0hdYyhbY0hdW2NIXTIpQyg9TylbTkhdW0NIMl1jM2MoQyhGKShGKUYpW2NIXWMoW2NIXVtjSF0zKVtOSF1TKD1PKSg9TylbQ0hdNFtDSDJdW0NIMl00

> <s_epik_cmdline>
J2VwaWtfcHl0aG9uJywgJy1waHQnLCAnMi4wJywgJy1waCcsICc3LjAnLCAnLXRuJywgJzgnLCAnLW1hJywgJzIwMCcsICctaW1hZScsICc8aW5maWxlLm1hZT4nLCAnLW9tYWUnLCAnPG91dGZpbGUubWFlPic=

> <r_epik_Ionization_Penalty>
  0.0750

> <r_epik_Ionization_Penalty_Charging>
  0.0000

> <r_epik_Ionization_Penalty_Neutral>
  0.0750

> <r_epik_State_Penalty>
  0.0661

> <r_epik_Charging_Adjusted_Penalty>
0.0660634

> <i_epik_Tot_Q>
0

> <i_epik_Tot_abs_Q>
0

> <s_lp_Force_Field>
OPLS3e

> <r_lp_Energy>
35.6467

> <b_lp_Chiralities_Consistent>
1

> <s_lp_Variant>
/home/yujie/leadopt/data/result/selection/sEH/lig_11h.sdf:1-1

> <s_i_glide_gridfile>
glide-grid_sEH

> <i_i_glide_lignum>
1

> <i_i_glide_rotatable_bonds>
10

> <r_i_docking_score>
-12.1983195290702

> <r_i_glide_ligand_efficiency>
-0.338842209140839

> <r_i_glide_ligand_efficiency_sa>
-1.11883232210134

> <r_i_glide_ligand_efficiency_ln>
-2.66134376073485

> <r_i_glide_gscore>
-12.2643829290702

> <r_i_glide_lipo>
-4.44838017226681

> <r_i_glide_hbond>
-0.69845829889088

> <r_i_glide_metal>
-0

> <r_i_glide_rewards>
-2.67989459835916

> <r_i_glide_evdw>
-55.8465156555176

> <r_i_glide_ecoul>
-13.3705520629883

> <r_i_glide_erotb>
0.560258732670777

> <r_i_glide_esite>
-0.2

> <r_i_glide_emodel>
-121.915348238146

> <r_i_glide_energy>
-69.2170677185059

> <r_i_glide_einternal>
12.7875747680664

> <i_i_glide_confnum>
143

> <i_i_glide_posenum>
136

> <r_i_glide_eff_state_penalty>
0.0660634

$$$$
