@<TRIPOS>MOLECULE
/home/yujie/leadopt/data/result/selection/sEH/lig_7e.sdf:1
48   51    1
SMALL
USER_CHARGES


@<TRIPOS>ATOM
      1 O1         -1.3291  -15.3334   25.6944 O.2       1 UNK         0.0000 
      2 C2         -1.0172  -14.8151   26.7674 C.2       1 UNK         0.0000 
      3 C3          0.0723  -13.7683   26.8227 C.ar      1 UNK         0.0000 
      4 C4          0.8316  -13.5185   25.6695 C.ar      1 UNK         0.0000 
      5 C5          1.7823  -12.5039   25.5981 C.ar      1 UNK         0.0000 
      6 C6          1.9567  -11.7277   26.7457 C.ar      1 UNK         0.0000 
      7 N7          2.7472  -10.6269   27.0122 N.pl3     1 UNK         0.0000 
      8 C8          3.7181   -9.9953   26.1310 C.3       1 UNK         0.0000 
      9 C9          5.0936  -10.6431   26.1990 C.ar      1 UNK         0.0000 
     10 C10         5.8581  -10.5327   27.3639 C.ar      1 UNK         0.0000 
     11 C11         7.1317  -11.0894   27.4274 C.ar      1 UNK         0.0000 
     12 F12         7.8710  -10.9348   28.5455 F         1 UNK         0.0000 
     13 C13         7.6428  -11.7893   26.3354 C.ar      1 UNK         0.0000 
     14 C14         6.8786  -11.9228   25.1750 C.ar      1 UNK         0.0000 
     15 C15         5.6084  -11.3469   25.1046 C.ar      1 UNK         0.0000 
     16 N16         2.6384  -10.2263   28.2965 N.2       1 UNK         0.0000 
     17 C17         1.7465  -10.9998   28.8596 C.ar      1 UNK         0.0000 
     18 C18         1.2474  -11.9730   27.9433 C.ar      1 UNK         0.0000 
     19 C19         0.2995  -13.0026   27.9799 C.ar      1 UNK         0.0000 
     20 N20        -1.6909  -15.0823   27.8955 N.am      1 UNK         0.0000 
     21 C21        -2.8600  -15.9590   28.0023 C.3       1 UNK         0.0000 
     22 C22        -2.5761  -17.4675   28.0702 C.ar      1 UNK         0.0000 
     23 C23        -3.5345  -18.4198   27.6496 C.ar      1 UNK         0.0000 
     24 C24        -4.8954  -18.0035   27.0706 C.3       1 UNK         0.0000 
     25 F25        -4.7231  -17.3988   25.8952 F         1 UNK         0.0000 
     26 F26        -5.7097  -19.0418   26.8770 F         1 UNK         0.0000 
     27 F27        -5.5143  -17.1639   27.8964 F         1 UNK         0.0000 
     28 C28        -3.2382  -19.7860   27.7772 C.ar      1 UNK         0.0000 
     29 C29        -2.0187  -20.2107   28.2966 C.ar      1 UNK         0.0000 
     30 C30        -1.0719  -19.2742   28.6962 C.ar      1 UNK         0.0000 
     31 C31        -1.3436  -17.9144   28.5715 C.ar      1 UNK         0.0000 
     32 H32         0.6712  -14.1082   24.7771 H         1 UNK         0.0000 
     33 H33         2.3316  -12.3169   24.6869 H         1 UNK         0.0000 
     34 H34         3.3275  -10.0396   25.1129 H         1 UNK         0.0000 
     35 H35         3.7806   -8.9344   26.3711 H         1 UNK         0.0000 
     36 H36         5.4747   -9.9999   28.2216 H         1 UNK         0.0000 
     37 H37         8.6305  -12.2223   26.3891 H         1 UNK         0.0000 
     38 H38         7.2734  -12.4643   24.3278 H         1 UNK         0.0000 
     39 H39         5.0294  -11.4479   24.1976 H         1 UNK         0.0000 
     40 H40         1.4640  -10.8632   29.8929 H         1 UNK         0.0000 
     41 H41        -0.2646  -13.1631   28.8866 H         1 UNK         0.0000 
     42 H42        -1.3291  -14.7535   28.7964 H         1 UNK         0.0000 
     43 H43        -3.5246  -15.7328   27.1695 H         1 UNK         0.0000 
     44 H44        -3.3965  -15.6804   28.9114 H         1 UNK         0.0000 
     45 H45        -3.9516  -20.5366   27.4685 H         1 UNK         0.0000 
     46 H46        -1.8061  -21.2658   28.3890 H         1 UNK         0.0000 
     47 H47        -0.1273  -19.6034   29.1071 H         1 UNK         0.0000 
     48 H48        -0.5964  -17.2070   28.9030 H         1 UNK         0.0000 
@<TRIPOS>BOND
     1    1    2 2    
     2    2    3 1    
     3    2   20 am   BACKBONE|DICT|INTERRES
     4    3   19 ar   
     5    3    4 ar   
     6    4    5 ar   
     7    4   32 1    
     8    5    6 ar   
     9    5   33 1    
    10    6    7 ar   
    11    6   18 ar   
    12    7    8 1    
    13    7   16 ar   
    14    8    9 1    
    15    8   34 1    
    16    8   35 1    
    17    9   15 ar   
    18    9   10 ar   
    19   10   11 ar   
    20   10   36 1    
    21   11   12 1    
    22   11   13 ar   
    23   13   14 ar   
    24   13   37 1    
    25   14   15 ar   
    26   14   38 1    
    27   15   39 1    
    28   16   17 ar   
    29   17   18 ar   
    30   17   40 1    
    31   18   19 ar   
    32   19   41 1    
    33   20   21 1    
    34   20   42 1    
    35   21   22 1    
    36   21   43 1    
    37   21   44 1    
    38   22   31 ar   
    39   22   23 ar   
    40   23   24 1    
    41   23   28 ar   
    42   24   25 1    
    43   24   26 1    
    44   24   27 1    
    45   28   29 ar   
    46   28   45 1    
    47   29   30 ar   
    48   29   46 1    
    49   30   31 ar   
    50   30   47 1    
    51   31   48 1    
@<TRIPOS>SUBSTRUCTURE
     1 UNK         1 GROUP             0       ****    0 ROOT    
