@<TRIPOS>MOLECULE
/home/yujie/leadopt/data/result/selection/sEH/lig_8d.sdf:1
60   64    1
SMALL
USER_CHARGES


@<TRIPOS>ATOM
      1 O1         -1.3290  -15.3337   25.6602 O.2       1 UNK         0.0000 
      2 C2         -0.9770  -14.9254   26.7679 C.2       1 UNK         0.0000 
      3 C3          0.1234  -13.8918   26.8573 C.ar      1 UNK         0.0000 
      4 C4          0.9564  -13.6859   25.7482 C.ar      1 UNK         0.0000 
      5 C5          1.9043  -12.6687   25.6917 C.ar      1 UNK         0.0000 
      6 C6          1.9987  -11.8273   26.8036 C.ar      1 UNK         0.0000 
      7 N7          2.7764  -10.7025   27.0265 N.pl3     1 UNK         0.0000 
      8 C8          3.7763  -10.1601   26.1169 C.3       1 UNK         0.0000 
      9 C9          5.1329  -10.8254   26.2837 C.ar      1 UNK         0.0000 
     10 C10         5.9031  -10.5466   27.4156 C.ar      1 UNK         0.0000 
     11 C11         7.1397  -11.1573   27.5944 C.ar      1 UNK         0.0000 
     12 F12         7.8692  -10.8700   28.6925 F         1 UNK         0.0000 
     13 C13         7.6185  -12.0569   26.6428 C.ar      1 UNK         0.0000 
     14 C14         6.8534  -12.3465   25.5112 C.ar      1 UNK         0.0000 
     15 C15         5.6130  -11.7303   25.3309 C.ar      1 UNK         0.0000 
     16 C16         2.5327  -10.2378   28.2980 C.ar      1 UNK         0.0000 
     17 C17         1.5751  -11.0172   28.9073 C.ar      1 UNK         0.0000 
     18 C18         1.2018  -12.0280   27.9696 C.ar      1 UNK         0.0000 
     19 C19         0.2710  -13.0744   27.9870 C.ar      1 UNK         0.0000 
     20 N20        -1.6127  -15.2945   27.8972 N.am      1 UNK         0.0000 
     21 C21        -2.8415  -16.0997   27.9278 C.3       1 UNK         0.0000 
     22 C22        -2.7101  -17.6344   27.9340 C.ar      1 UNK         0.0000 
     23 C23        -3.8142  -18.4587   27.6200 C.ar      1 UNK         0.0000 
     24 C24        -5.1469  -17.8883   27.1068 C.3       1 UNK         0.0000 
     25 F25        -5.5841  -16.9343   27.9145 F         1 UNK         0.0000 
     26 F26        -4.9739  -17.3735   25.8884 F         1 UNK         0.0000 
     27 F27        -6.1210  -18.7964   27.0306 F         1 UNK         0.0000 
     28 C28        -3.6964  -19.8447   27.7954 C.ar      1 UNK         0.0000 
     29 C29        -2.5126  -20.4595   28.2084 C.ar      1 UNK         0.0000 
     30 N30        -2.5679  -21.8142   28.4197 N.2       1 UNK         0.0000 
     31 S31        -1.3947  -22.8404   28.2375 S.o2      1 UNK         0.0000 
     32 C32        -1.5461  -23.2752   26.4002 C.3       1 UNK         0.0000 
     33 C33        -1.0126  -24.6183   25.9571 C.3       1 UNK         0.0000 
     34 C34        -2.5091  -24.3744   26.0153 C.3       1 UNK         0.0000 
     35 O35        -1.6461  -24.0805   28.9792 O.2       1 UNK         0.0000 
     36 O36        -0.0435  -22.2904   28.3586 O.2       1 UNK         0.0000 
     37 C37        -1.4063  -19.6286   28.4253 C.ar      1 UNK         0.0000 
     38 C38        -1.5018  -18.2420   28.2977 C.ar      1 UNK         0.0000 
     39 H39         0.8530  -14.3091   24.8718 H         1 UNK         0.0000 
     40 H40         2.5074  -12.5225   24.8083 H         1 UNK         0.0000 
     41 H41         3.4113  -10.2682   25.0940 H         1 UNK         0.0000 
     42 H42         3.8579   -9.0862   26.2853 H         1 UNK         0.0000 
     43 H43         5.5460   -9.8569   28.1655 H         1 UNK         0.0000 
     44 H44         8.5805  -12.5261   26.7849 H         1 UNK         0.0000 
     45 H45         7.2210  -13.0457   24.7742 H         1 UNK         0.0000 
     46 H46         5.0262  -11.9617   24.4538 H         1 UNK         0.0000 
     47 H47         3.0709   -9.3761   28.6664 H         1 UNK         0.0000 
     48 H48         1.1807  -10.8736   29.9002 H         1 UNK         0.0000 
     49 H49        -0.3615  -13.1976   28.8523 H         1 UNK         0.0000 
     50 H50        -1.2832  -14.9661   28.8083 H         1 UNK         0.0000 
     51 H51        -3.4721  -15.7958   27.0923 H         1 UNK         0.0000 
     52 H52        -3.3786  -15.8159   28.8343 H         1 UNK         0.0000 
     53 H53        -4.5523  -20.4763   27.6025 H         1 UNK         0.0000 
     54 H54        -1.4250  -22.3923   25.7774 H         1 UNK         0.0000 
     55 H55        -0.5510  -25.2678   26.7027 H         1 UNK         0.0000 
     56 H56        -0.5185  -24.6820   24.9869 H         1 UNK         0.0000 
     57 H57        -3.0721  -24.2642   25.0886 H         1 UNK         0.0000 
     58 H58        -3.0967  -24.8507   26.8016 H         1 UNK         0.0000 
     59 H59        -0.4702  -20.0326   28.7747 H         1 UNK         0.0000 
     60 H60        -0.6358  -17.6417   28.5365 H         1 UNK         0.0000 
@<TRIPOS>BOND
     1    1    2 2    
     2    2    3 1    
     3    2   20 am   BACKBONE|DICT|INTERRES
     4    3   19 ar   
     5    3    4 ar   
     6    4    5 ar   
     7    4   39 1    
     8    5    6 ar   
     9    5   40 1    
    10    6    7 ar   
    11    6   18 ar   
    12    7    8 1    
    13    7   16 ar   
    14    8    9 1    
    15    8   41 1    
    16    8   42 1    
    17    9   15 ar   
    18    9   10 ar   
    19   10   11 ar   
    20   10   43 1    
    21   11   12 1    
    22   11   13 ar   
    23   13   14 ar   
    24   13   44 1    
    25   14   15 ar   
    26   14   45 1    
    27   15   46 1    
    28   16   17 ar   
    29   16   47 1    
    30   17   18 ar   
    31   17   48 1    
    32   18   19 ar   
    33   19   49 1    
    34   20   21 1    
    35   20   50 1    
    36   21   22 1    
    37   21   51 1    
    38   21   52 1    
    39   22   38 ar   
    40   22   23 ar   
    41   23   24 1    
    42   23   28 ar   
    43   24   25 1    
    44   24   26 1    
    45   24   27 1    
    46   28   29 ar   
    47   28   53 1    
    48   29   30 1    
    49   29   37 ar   
    50   30   31 1    
    51   31   32 1    
    52   31   35 2    
    53   31   36 2    
    54   32   34 1    
    55   32   33 1    
    56   32   54 1    
    57   33   34 1    
    58   33   55 1    
    59   33   56 1    
    60   34   57 1    
    61   34   58 1    
    62   37   38 ar   
    63   37   59 1    
    64   38   60 1    
@<TRIPOS>SUBSTRUCTURE
     1 UNK         1 GROUP             0       ****    0 ROOT    
