@<TRIPOS>MOLECULE
/home/yujie/leadopt/data/result/selection/sEH/lig_8a.sdf:1
51   54    1
SMALL
USER_CHARGES


@<TRIPOS>ATOM
      1 O1         -2.3202  -14.3336   27.8972 O.2       1 UNK         0.0000 
      2 C2         -1.3290  -14.7313   27.2926 C.2       1 UNK         0.0000 
      3 C3         -0.1109  -13.8438   27.1816 C.ar      1 UNK         0.0000 
      4 C4          0.6897  -13.8288   26.0313 C.ar      1 UNK         0.0000 
      5 C5          1.7037  -12.8871   25.8404 C.ar      1 UNK         0.0000 
      6 C6          1.9052  -11.9431   26.8576 C.ar      1 UNK         0.0000 
      7 N7          2.7566  -10.8491   26.9461 N.pl3     1 UNK         0.0000 
      8 C8          3.7456  -10.4330   25.9561 C.3       1 UNK         0.0000 
      9 C9          5.1384  -11.0371   26.1262 C.ar      1 UNK         0.0000 
     10 C10         5.4392  -11.9346   27.1606 C.ar      1 UNK         0.0000 
     11 C11         6.7226  -12.4516   27.2958 C.ar      1 UNK         0.0000 
     12 F12         6.9875  -13.3156   28.2972 F         1 UNK         0.0000 
     13 C13         7.7240  -12.0837   26.3993 C.ar      1 UNK         0.0000 
     14 C14         7.4371  -11.1934   25.3646 C.ar      1 UNK         0.0000 
     15 C15         6.1488  -10.6728   25.2295 C.ar      1 UNK         0.0000 
     16 C16         2.6197  -10.2726   28.1887 C.ar      1 UNK         0.0000 
     17 C17         1.6513  -10.9327   28.9077 C.ar      1 UNK         0.0000 
     18 C18         1.1555  -11.9771   28.0695 C.ar      1 UNK         0.0000 
     19 C19         0.1486  -12.9330   28.2116 C.ar      1 UNK         0.0000 
     20 N20        -1.3290  -15.9077   26.6422 N.am      1 UNK         0.0000 
     21 C21        -2.5453  -16.7088   26.4180 C.3       1 UNK         0.0000 
     22 C22        -2.6967  -18.0376   27.1631 C.ar      1 UNK         0.0000 
     23 C23        -3.9045  -18.7776   27.0972 C.ar      1 UNK         0.0000 
     24 C24        -5.1688  -18.3145   26.3436 C.3       1 UNK         0.0000 
     25 F25        -6.0404  -17.8304   27.2276 F         1 UNK         0.0000 
     26 F26        -4.9777  -17.3864   25.4063 F         1 UNK         0.0000 
     27 F27        -5.7290  -19.3566   25.7284 F         1 UNK         0.0000 
     28 C28        -3.9597  -20.0376   27.7118 C.ar      1 UNK         0.0000 
     29 C29        -2.8576  -20.5677   28.3729 C.ar      1 UNK         0.0000 
     30 N30        -2.9289  -21.8422   28.9297 N.pl3     1 UNK         0.0000 
     31 C31        -1.6881  -19.8222   28.4707 C.ar      1 UNK         0.0000 
     32 C32        -1.6196  -18.5557   27.8972 C.ar      1 UNK         0.0000 
     33 H33         0.4996  -14.5229   25.2268 H         1 UNK         0.0000 
     34 H34         2.2768  -12.8708   24.9251 H         1 UNK         0.0000 
     35 H35         3.3617  -10.6815   24.9654 H         1 UNK         0.0000 
     36 H36         3.8169   -9.3446   25.9901 H         1 UNK         0.0000 
     37 H37         4.6900  -12.2435   27.8739 H         1 UNK         0.0000 
     38 H38         8.7173  -12.4916   26.5076 H         1 UNK         0.0000 
     39 H39         8.2114  -10.9072   24.6680 H         1 UNK         0.0000 
     40 H40         5.9383   -9.9824   24.4251 H         1 UNK         0.0000 
     41 H41         3.2381   -9.4278   28.4572 H         1 UNK         0.0000 
     42 H42         1.3270  -10.6841   29.9062 H         1 UNK         0.0000 
     43 H43        -0.4693  -12.9329   29.0972 H         1 UNK         0.0000 
     44 H44        -0.4413  -16.3137   26.3922 H         1 UNK         0.0000 
     45 H45        -2.5840  -16.9329   25.3532 H         1 UNK         0.0000 
     46 H46        -3.4368  -16.1209   26.6452 H         1 UNK         0.0000 
     47 H47        -4.8675  -20.6215   27.6568 H         1 UNK         0.0000 
     48 H48        -2.0534  -22.2954   29.1477 H         1 UNK         0.0000 
     49 H49        -3.7284  -22.4085   28.6858 H         1 UNK         0.0000 
     50 H50        -0.8259  -20.2120   28.9946 H         1 UNK         0.0000 
     51 H51        -0.6948  -18.0056   27.9896 H         1 UNK         0.0000 
@<TRIPOS>BOND
     1    1    2 2    
     2    2    3 1    
     3    2   20 am   BACKBONE|DICT|INTERRES
     4    3   19 ar   
     5    3    4 ar   
     6    4    5 ar   
     7    4   33 1    
     8    5    6 ar   
     9    5   34 1    
    10    6    7 ar   
    11    6   18 ar   
    12    7    8 1    
    13    7   16 ar   
    14    8    9 1    
    15    8   35 1    
    16    8   36 1    
    17    9   15 ar   
    18    9   10 ar   
    19   10   11 ar   
    20   10   37 1    
    21   11   12 1    
    22   11   13 ar   
    23   13   14 ar   
    24   13   38 1    
    25   14   15 ar   
    26   14   39 1    
    27   15   40 1    
    28   16   17 ar   
    29   16   41 1    
    30   17   18 ar   
    31   17   42 1    
    32   18   19 ar   
    33   19   43 1    
    34   20   21 1    
    35   20   44 1    
    36   21   22 1    
    37   21   45 1    
    38   21   46 1    
    39   22   32 ar   
    40   22   23 ar   
    41   23   24 1    
    42   23   28 ar   
    43   24   25 1    
    44   24   26 1    
    45   24   27 1    
    46   28   29 ar   
    47   28   47 1    
    48   29   30 1    
    49   29   31 ar   
    50   30   48 1    
    51   30   49 1    
    52   31   32 ar   
    53   31   50 1    
    54   32   51 1    
@<TRIPOS>SUBSTRUCTURE
     1 UNK         1 GROUP             0       ****    0 ROOT    
