@<TRIPOS>MOLECULE
/home/yujie/leadopt/data/result/selection/sEH/lig_8c.sdf:1
60   63    1
SMALL
USER_CHARGES


@<TRIPOS>ATOM
      1 O1         -1.3290  -15.3329   25.7510 O.2       1 UNK         0.0000 
      2 C2         -1.0692  -14.7336   26.7956 C.2       1 UNK         0.0000 
      3 C3          0.0500  -13.7153   26.8460 C.ar      1 UNK         0.0000 
      4 C4          0.7071  -13.3676   25.6582 C.ar      1 UNK         0.0000 
      5 C5          1.7166  -12.4113   25.6046 C.ar      1 UNK         0.0000 
      6 C6          2.0778  -11.7968   26.8079 C.ar      1 UNK         0.0000 
      7 N7          3.0207  -10.8188   27.0819 N.pl3     1 UNK         0.0000 
      8 C8          3.9126  -10.1933   26.1134 C.3       1 UNK         0.0000 
      9 C9          5.0233  -11.1010   25.6080 C.ar      1 UNK         0.0000 
     10 C10         6.0919  -11.4289   26.4491 C.ar      1 UNK         0.0000 
     11 C11         7.1308  -12.2327   25.9827 C.ar      1 UNK         0.0000 
     12 F12         8.1679  -12.5329   26.7956 F         1 UNK         0.0000 
     13 C13         7.1020  -12.7244   24.6778 C.ar      1 UNK         0.0000 
     14 C14         6.0366  -12.4052   23.8350 C.ar      1 UNK         0.0000 
     15 C15         5.0018  -11.5910   24.2970 C.ar      1 UNK         0.0000 
     16 C16         3.0201  -10.5645   28.4351 C.ar      1 UNK         0.0000 
     17 C17         2.0624  -11.3329   29.0592 C.ar      1 UNK         0.0000 
     18 C18         1.4466  -12.1304   28.0434 C.ar      1 UNK         0.0000 
     19 C19         0.4291  -13.0930   28.0475 C.ar      1 UNK         0.0000 
     20 N20        -1.8194  -14.8956   27.8972 N.am      1 UNK         0.0000 
     21 C21        -2.9494  -15.8204   28.0326 C.3       1 UNK         0.0000 
     22 C22        -2.5760  -17.3105   28.0551 C.ar      1 UNK         0.0000 
     23 C23        -3.4113  -18.3164   27.5155 C.ar      1 UNK         0.0000 
     24 C24        -4.7572  -17.9903   26.8508 C.3       1 UNK         0.0000 
     25 F25        -5.5388  -17.3328   27.7053 F         1 UNK         0.0000 
     26 F26        -4.5653  -17.2363   25.7678 F         1 UNK         0.0000 
     27 F27        -5.4173  -19.0838   26.4647 F         1 UNK         0.0000 
     28 C28        -3.0027  -19.6578   27.6031 C.ar      1 UNK         0.0000 
     29 C29        -1.7871  -20.0101   28.1953 C.ar      1 UNK         0.0000 
     30 N30        -1.3290  -21.3293   28.2973 N.pl3     1 UNK         0.0000 
     31 S31        -2.3661  -22.7588   28.3323 S.o2      1 UNK         0.0000 
     32 C32        -2.5698  -23.1653   26.4977 C.3       1 UNK         0.0000 
     33 C33        -3.2896  -24.5095   26.3182 C.3       1 UNK         0.0000 
     34 O34        -3.6631  -22.3751   28.9007 O.2       1 UNK         0.0000 
     35 O35        -1.5724  -23.8213   28.9566 O.2       1 UNK         0.0000 
     36 C36        -0.9660  -19.0082   28.6972 C.ar      1 UNK         0.0000 
     37 C37        -1.3528  -17.6770   28.6305 C.ar      1 UNK         0.0000 
     38 H38         0.4280  -13.8408   24.7270 H         1 UNK         0.0000 
     39 H39         2.1886  -12.1612   24.6664 H         1 UNK         0.0000 
     40 H40         3.3079   -9.8171   25.2862 H         1 UNK         0.0000 
     41 H41         4.3692   -9.3238   26.5773 H         1 UNK         0.0000 
     42 H42         6.1249  -11.0552   27.4622 H         1 UNK         0.0000 
     43 H43         7.9079  -13.3484   24.3212 H         1 UNK         0.0000 
     44 H44         6.0163  -12.7809   22.8223 H         1 UNK         0.0000 
     45 H45         4.1892  -11.3396   23.6300 H         1 UNK         0.0000 
     46 H46         3.7089   -9.8395   28.8454 H         1 UNK         0.0000 
     47 H47         1.8415  -11.3269   30.1166 H         1 UNK         0.0000 
     48 H48        -0.0519  -13.3329   28.9841 H         1 UNK         0.0000 
     49 H49        -1.4770  -14.5329   28.7892 H         1 UNK         0.0000 
     50 H50        -3.6794  -15.5926   27.2593 H         1 UNK         0.0000 
     51 H51        -3.4448  -15.5928   28.9783 H         1 UNK         0.0000 
     52 H52        -3.6366  -20.4337   27.2038 H         1 UNK         0.0000 
     53 H53        -0.3923  -21.4653   28.6491 H         1 UNK         0.0000 
     54 H54        -1.5686  -23.1936   26.0690 H         1 UNK         0.0000 
     55 H55        -3.1120  -22.3475   26.0259 H         1 UNK         0.0000 
     56 H56        -3.3290  -24.7891   25.2651 H         1 UNK         0.0000 
     57 H57        -4.3118  -24.4657   26.6969 H         1 UNK         0.0000 
     58 H58        -2.7725  -25.3108   26.8479 H         1 UNK         0.0000 
     59 H59        -0.0343  -19.2598   29.1807 H         1 UNK         0.0000 
     60 H60        -0.7009  -16.9270   29.0577 H         1 UNK         0.0000 
@<TRIPOS>BOND
     1    1    2 2    
     2    2    3 1    
     3    2   20 am   BACKBONE|DICT|INTERRES
     4    3   19 ar   
     5    3    4 ar   
     6    4    5 ar   
     7    4   38 1    
     8    5    6 ar   
     9    5   39 1    
    10    6    7 ar   
    11    6   18 ar   
    12    7    8 1    
    13    7   16 ar   
    14    8    9 1    
    15    8   40 1    
    16    8   41 1    
    17    9   15 ar   
    18    9   10 ar   
    19   10   11 ar   
    20   10   42 1    
    21   11   12 1    
    22   11   13 ar   
    23   13   14 ar   
    24   13   43 1    
    25   14   15 ar   
    26   14   44 1    
    27   15   45 1    
    28   16   17 ar   
    29   16   46 1    
    30   17   18 ar   
    31   17   47 1    
    32   18   19 ar   
    33   19   48 1    
    34   20   21 1    
    35   20   49 1    
    36   21   22 1    
    37   21   50 1    
    38   21   51 1    
    39   22   37 ar   
    40   22   23 ar   
    41   23   24 1    
    42   23   28 ar   
    43   24   25 1    
    44   24   26 1    
    45   24   27 1    
    46   28   29 ar   
    47   28   52 1    
    48   29   30 1    
    49   29   36 ar   
    50   30   31 1    
    51   30   53 1    
    52   31   32 1    
    53   31   34 2    
    54   31   35 2    
    55   32   33 1    
    56   32   54 1    
    57   32   55 1    
    58   33   56 1    
    59   33   57 1    
    60   33   58 1    
    61   36   37 ar   
    62   36   59 1    
    63   37   60 1    
@<TRIPOS>SUBSTRUCTURE
     1 UNK         1 GROUP             0       ****    0 ROOT    
