/home/yujie/leadopt/data/result/selection/sEH/lig_h.sdf:1
                    3D
 Schrodinger Suite 2020-3.
 53 56  0  0  1  0            999 V2000
   -1.3293  -16.1162   25.8976 O   0  0  0  0  0  0
   -1.2363  -15.3257   26.8358 C   0  0  0  0  0  0
   -0.2013  -14.2085   26.8433 C   0  0  0  0  0  0
    0.7516  -14.0996   25.8228 C   0  0  0  0  0  0
    1.7191  -13.0919   25.7857 C   0  0  0  0  0  0
    1.7360  -12.1792   26.8475 C   0  0  0  0  0  0
    2.5248  -11.0638   27.1005 N   0  0  0  0  0  0
    3.6171  -10.5588   26.2758 C   0  0  0  0  0  0
    4.9841  -11.1209   26.6509 C   0  0  0  0  0  0
    5.7558  -11.7917   25.6979 C   0  0  0  0  0  0
    7.0121  -12.2920   26.0378 C   0  0  0  0  0  0
    7.7540  -12.9326   25.1089 F   0  0  0  0  0  0
    7.5031  -12.1289   27.3311 C   0  0  0  0  0  0
    6.7437  -11.4567   28.2880 C   0  0  0  0  0  0
    5.4922  -10.9486   27.9444 C   0  0  0  0  0  0
    2.1625  -10.5325   28.3164 C   0  0  0  0  0  0
    1.1281  -11.2537   28.8606 C   0  0  0  0  0  0
    0.8152  -12.2847   27.9281 C   0  0  0  0  0  0
   -0.1546  -13.2893   27.8976 C   0  0  0  0  0  0
   -2.0552  -15.3740   27.8972 N   0  0  0  0  0  0
   -2.3857  -16.5229   28.7279 C   0  0  0  0  0  0
   -2.5085  -17.9420   28.1577 C   0  0  0  0  0  0
   -3.6934  -18.4317   27.5743 C   0  0  0  0  0  0
   -4.8429  -17.4938   27.1881 C   0  0  0  0  0  0
   -5.3305  -16.9329   28.2866 F   0  0  0  0  0  0
   -4.4115  -16.5423   26.3612 F   0  0  0  0  0  0
   -5.8457  -18.1288   26.5794 F   0  0  0  0  0  0
   -3.8249  -19.8124   27.3607 C   0  0  0  0  0  0
   -2.8037  -20.7105   27.7091 C   0  0  0  0  0  0
   -2.8669  -22.0789   27.5326 O   0  0  0  0  0  0
   -3.9999  -22.6434   26.8844 C   0  0  0  0  0  0
   -1.6302  -20.2028   28.2605 C   0  0  0  0  0  0
   -1.4717  -18.8346   28.4517 C   0  0  0  0  0  0
    0.7650  -14.8128   25.0187 H   0  0  0  0  0  0
    2.4263  -13.0311   24.9701 H   0  0  0  0  0  0
    3.3819  -10.7622   25.2284 H   0  0  0  0  0  0
    3.6389   -9.4730   26.3648 H   0  0  0  0  0  0
    5.3900  -11.9307   24.6921 H   0  0  0  0  0  0
    8.4754  -12.5187   27.5928 H   0  0  0  0  0  0
    7.1200  -11.3199   29.2917 H   0  0  0  0  0  0
    4.9210  -10.4222   28.6932 H   0  0  0  0  0  0
    2.6803   -9.6630   28.6947 H   0  0  0  0  0  0
    0.6498  -11.0525   29.8047 H   0  0  0  0  0  0
   -0.8688  -13.3267   28.6973 H   0  0  0  0  0  0
   -2.1163  -14.5197   28.4346 H   0  0  0  0  0  0
   -3.2810  -16.2726   29.2923 H   0  0  0  0  0  0
   -1.6115  -16.5333   29.4968 H   0  0  0  0  0  0
   -4.7349  -20.1881   26.9205 H   0  0  0  0  0  0
   -3.8648  -23.7212   26.7929 H   0  0  0  0  0  0
   -4.1180  -22.2436   25.8765 H   0  0  0  0  0  0
   -4.9159  -22.4709   27.4502 H   0  0  0  0  0  0
   -0.8258  -20.8731   28.5315 H   0  0  0  0  0  0
   -0.5572  -18.4811   28.9111 H   0  0  0  0  0  0
  1  2  2  0  0  0
  2  3  1  0  0  0
  2 20  1  0  0  0
  3 19  1  0  0  0
  3  4  2  0  0  0
  4  5  1  0  0  0
  4 34  1  0  0  0
  5  6  2  0  0  0
  5 35  1  0  0  0
  6  7  1  0  0  0
  6 18  1  0  0  0
  7  8  1  0  0  0
  7 16  1  0  0  0
  8  9  1  0  0  0
  8 36  1  0  0  0
  8 37  1  0  0  0
  9 15  1  0  0  0
  9 10  2  0  0  0
 10 11  1  0  0  0
 10 38  1  0  0  0
 11 12  1  0  0  0
 11 13  2  0  0  0
 13 14  1  0  0  0
 13 39  1  0  0  0
 14 15  2  0  0  0
 14 40  1  0  0  0
 15 41  1  0  0  0
 16 17  2  0  0  0
 16 42  1  0  0  0
 17 18  1  0  0  0
 17 43  1  0  0  0
 18 19  2  0  0  0
 19 44  1  0  0  0
 20 21  1  0  0  0
 20 45  1  0  0  0
 21 22  1  0  0  0
 21 46  1  0  0  0
 21 47  1  0  0  0
 22 33  1  0  0  0
 22 23  2  0  0  0
 23 24  1  0  0  0
 23 28  1  0  0  0
 24 25  1  0  0  0
 24 26  1  0  0  0
 24 27  1  0  0  0
 28 29  2  0  0  0
 28 48  1  0  0  0
 29 30  1  0  0  0
 29 32  1  0  0  0
 30 31  1  0  0  0
 31 49  1  0  0  0
 31 50  1  0  0  0
 31 51  1  0  0  0
 32 33  2  0  0  0
 32 52  1  0  0  0
 33 53  1  0  0  0
M  END
> <s_m_source_file>
/home/yujie/leadopt/data/result/selection/sEH/lig_h.sdf

> <i_m_source_file_index>
1

> <i_lp_mmshare_version>
51139

> <i_f3d_flags>
0

> <s_epik_input>
W0NIM11PYyhbY0hdW2NIXTEpW2NIXWMoQyhGKShGKUYpYzFbQ0gyXVtOSF1DKD1PKWMoW2NIXVtjSF0yKVtjSF1jKGMyMylbY0hdW2NIXW4zW0NIMl1jNFtjSF1jKEYpW2NIXVtjSF1bY0hdNA==

> <s_epik_cmdline>
J2VwaWtfcHl0aG9uJywgJy1waHQnLCAnMi4wJywgJy1waCcsICc3LjAnLCAnLXRuJywgJzgnLCAnLW1hJywgJzIwMCcsICctaW1hZScsICc8aW5maWxlLm1hZT4nLCAnLW9tYWUnLCAnPG91dGZpbGUubWFlPic=

> <r_lp_tautomer_probability>
1

> <r_epik_Ionization_Penalty>
  0.0000

> <r_epik_Ionization_Penalty_Charging>
  0.0000

> <r_epik_Ionization_Penalty_Neutral>
  0.0000

> <r_epik_State_Penalty>
 -0.0000

> <r_epik_Charging_Adjusted_Penalty>
0

> <i_epik_Tot_Q>
0

> <i_epik_Tot_abs_Q>
0

> <s_lp_Force_Field>
OPLS3e

> <r_lp_Energy>
44.4239

> <b_lp_Chiralities_Consistent>
1

> <s_lp_Variant>
/home/yujie/leadopt/data/result/selection/sEH/lig_h.sdf:1-1

> <s_i_glide_gridfile>
glide-grid_sEH

> <i_i_glide_lignum>
1

> <i_i_glide_rotatable_bonds>
8

> <r_i_docking_score>
-9.76989854053097

> <r_i_glide_ligand_efficiency>
-0.296057531531241

> <r_i_glide_ligand_efficiency_sa>
-0.9496146949335

> <r_i_glide_ligand_efficiency_ln>
-2.17277484958674

> <r_i_glide_gscore>
-9.76989854053097

> <r_i_glide_lipo>
-5.05190473507804

> <r_i_glide_hbond>
-0.331776999356762

> <r_i_glide_metal>
-0

> <r_i_glide_rewards>
-0.561810591256797

> <r_i_glide_evdw>
-50.9658622741699

> <r_i_glide_ecoul>
-10.8590316772461

> <r_i_glide_erotb>
0.578800580467309

> <r_i_glide_esite>
-0.226058930011264

> <r_i_glide_emodel>
-82.8587921688006

> <r_i_glide_energy>
-61.824893951416

> <r_i_glide_einternal>
15.2946605682373

> <i_i_glide_confnum>
21

> <i_i_glide_posenum>
350

> <r_i_glide_eff_state_penalty>
-0

$$$$
