@<TRIPOS>MOLECULE
/home/yujie/leadopt/data/result/selection/sEH/lig_11h.sdf:1
60   63    1
SMALL
USER_CHARGES


@<TRIPOS>ATOM
      1 O1         -1.3295  -15.5585   25.7860 O.2       1 UNK         0.0000 
      2 C2         -1.0303  -14.9153   26.7870 C.2       1 UNK         0.0000 
      3 C3          0.1238  -13.9419   26.7623 C.ar      1 UNK         0.0000 
      4 C4          0.8849  -13.8622   25.5920 C.ar      1 UNK         0.0000 
      5 C5          1.8927  -12.9324   25.4114 C.ar      1 UNK         0.0000 
      6 C6          2.1210  -12.0274   26.4458 C.ar      1 UNK         0.0000 
      7 C7          1.4097  -12.1067   27.6848 C.ar      1 UNK         0.0000 
      8 C8          1.9246  -11.0645   28.5181 C.ar      1 UNK         0.0000 
      9 C9          2.8619  -10.3799   27.7736 C.ar      1 UNK         0.0000 
     10 N10         2.9732  -10.9411   26.5196 N.pl3     1 UNK         0.0000 
     11 S11         4.0712  -10.3880   25.3071 S.o2      1 UNK         0.0000 
     12 C12         5.6981  -11.2443   25.8036 C.3       1 UNK         0.0000 
     13 C13         6.1542  -10.8157   27.2096 C.3       1 UNK         0.0000 
     14 C14         6.7576  -10.9491   24.7337 C.3       1 UNK         0.0000 
     15 O15         4.1728   -8.9413   25.4966 O.2       1 UNK         0.0000 
     16 O16         3.6175  -10.9351   24.0250 O.2       1 UNK         0.0000 
     17 C17         0.4196  -13.0929   27.8450 C.ar      1 UNK         0.0000 
     18 N18        -1.7645  -14.9972   27.8961 N.am      1 UNK         0.0000 
     19 C19        -2.9041  -15.8977   28.0876 C.3       1 UNK         0.0000 
     20 C20        -2.5551  -17.3965   28.1158 C.ar      1 UNK         0.0000 
     21 C21        -3.4246  -18.3951   27.6162 C.ar      1 UNK         0.0000 
     22 C22        -4.7937  -18.0450   27.0210 C.3       1 UNK         0.0000 
     23 F23        -4.6403  -17.3496   25.8938 F         1 UNK         0.0000 
     24 F24        -5.5263  -19.1252   26.7426 F         1 UNK         0.0000 
     25 F25        -5.4792  -17.3101   27.8950 F         1 UNK         0.0000 
     26 C26        -3.0339  -19.7432   27.6924 C.ar      1 UNK         0.0000 
     27 C27        -1.8034  -20.1107   28.2454 C.ar      1 UNK         0.0000 
     28 N28        -1.3660  -21.4358   28.3758 N.pl3     1 UNK         0.0000 
     29 S29        -2.4106  -22.8613   28.3303 S.o2      1 UNK         0.0000 
     30 C30        -2.4997  -23.2040   26.4681 C.3       1 UNK         0.0000 
     31 C31        -1.3579  -23.9982   25.8820 C.3       1 UNK         0.0000 
     32 C32        -2.7292  -24.6252   26.0233 C.3       1 UNK         0.0000 
     33 O33        -1.6474  -23.9303   28.9833 O.2       1 UNK         0.0000 
     34 O34        -3.7338  -22.4737   28.8324 O.2       1 UNK         0.0000 
     35 C35        -0.9483  -19.1149   28.6973 C.ar      1 UNK         0.0000 
     36 C36        -1.3163  -17.7787   28.6420 C.ar      1 UNK         0.0000 
     37 H37         0.6848  -14.5228   24.7604 H         1 UNK         0.0000 
     38 H38         2.4253  -12.8994   24.4750 H         1 UNK         0.0000 
     39 H39         1.6329  -10.8294   29.5311 H         1 UNK         0.0000 
     40 H40         3.4703   -9.5228   28.0315 H         1 UNK         0.0000 
     41 H41         5.4803  -12.3105   25.8040 H         1 UNK         0.0000 
     42 H42         7.1257  -11.2421   27.4648 H         1 UNK         0.0000 
     43 H43         5.4553  -11.1484   27.9727 H         1 UNK         0.0000 
     44 H44         6.2407   -9.7349   27.2856 H         1 UNK         0.0000 
     45 H45         7.6949  -11.4587   24.9510 H         1 UNK         0.0000 
     46 H46         6.4231  -11.2828   23.7528 H         1 UNK         0.0000 
     47 H47         6.9652   -9.8837   24.6624 H         1 UNK         0.0000 
     48 H48        -0.1272  -13.1517   28.7817 H         1 UNK         0.0000 
     49 H49        -1.3691  -14.6376   28.7693 H         1 UNK         0.0000 
     50 H50        -3.3720  -15.6455   29.0381 H         1 UNK         0.0000 
     51 H51        -3.6465  -15.6680   27.3277 H         1 UNK         0.0000 
     52 H52        -3.6932  -20.5094   27.3138 H         1 UNK         0.0000 
     53 H53        -0.4296  -21.5867   28.7227 H         1 UNK         0.0000 
     54 H54        -2.9542  -22.3778   25.9223 H         1 UNK         0.0000 
     55 H55        -0.9864  -23.7295   24.8924 H         1 UNK         0.0000 
     56 H56        -0.5554  -24.3283   26.5411 H         1 UNK         0.0000 
     57 H57        -2.8888  -25.3934   26.7804 H         1 UNK         0.0000 
     58 H58        -3.3209  -24.7984   25.1241 H         1 UNK         0.0000 
     59 H59        -0.0052  -19.3755   29.1529 H         1 UNK         0.0000 
     60 H60        -0.6347  -17.0398   29.0388 H         1 UNK         0.0000 
@<TRIPOS>BOND
     1    1    2 2    
     2    2    3 1    
     3    2   18 am   BACKBONE|DICT|INTERRES
     4    3   17 ar   
     5    3    4 ar   
     6    4    5 ar   
     7    4   37 1    
     8    5    6 ar   
     9    5   38 1    
    10    6   10 ar   
    11    6    7 ar   
    12    7    8 ar   
    13    7   17 ar   
    14    8    9 ar   
    15    8   39 1    
    16    9   10 ar   
    17    9   40 1    
    18   10   11 1    
    19   11   12 1    
    20   11   15 2    
    21   11   16 2    
    22   12   13 1    
    23   12   14 1    
    24   12   41 1    
    25   13   42 1    
    26   13   43 1    
    27   13   44 1    
    28   14   45 1    
    29   14   46 1    
    30   14   47 1    
    31   17   48 1    
    32   18   19 1    
    33   18   49 1    
    34   19   20 1    
    35   19   50 1    
    36   19   51 1    
    37   20   36 ar   
    38   20   21 ar   
    39   21   22 1    
    40   21   26 ar   
    41   22   23 1    
    42   22   24 1    
    43   22   25 1    
    44   26   27 ar   
    45   26   52 1    
    46   27   28 1    
    47   27   35 ar   
    48   28   29 1    
    49   28   53 1    
    50   29   30 1    
    51   29   33 2    
    52   29   34 2    
    53   30   32 1    
    54   30   31 1    
    55   30   54 1    
    56   31   32 1    
    57   31   55 1    
    58   31   56 1    
    59   32   57 1    
    60   32   58 1    
    61   35   36 ar   
    62   35   59 1    
    63   36   60 1    
@<TRIPOS>SUBSTRUCTURE
     1 UNK         1 GROUP             0       ****    0 ROOT    
