@<TRIPOS>MOLECULE
/home/yujie/leadopt/data/result/selection/sEH/lig_11l.sdf:1
61   64    1
SMALL
USER_CHARGES


@<TRIPOS>ATOM
      1 O1         -1.3288  -15.3329   25.7437 O.2       1 UNK         0.0000 
      2 C2         -1.0571  -14.7336   26.7853 C.2       1 UNK         0.0000 
      3 C3          0.0550  -13.7065   26.8140 C.ar      1 UNK         0.0000 
      4 C4          0.6800  -13.3495   25.6109 C.ar      1 UNK         0.0000 
      5 C5          1.6823  -12.3879   25.5363 C.ar      1 UNK         0.0000 
      6 C6          2.0729  -11.7792   26.7339 C.ar      1 UNK         0.0000 
      7 N7          3.0344  -10.8111   26.9867 N.pl3     1 UNK         0.0000 
      8 C8          3.8634  -10.1475   25.9780 C.3       1 UNK         0.0000 
      9 C9          4.8901  -11.0633   25.2743 C.2       1 UNK         0.0000 
     10 N10         5.3135  -10.7524   24.0206 N.am      1 UNK         0.0000 
     11 C11         6.1771  -11.6522   23.2499 C.3       1 UNK         0.0000 
     12 C12         4.9112   -9.5610   23.2653 C.3       1 UNK         0.0000 
     13 O13         5.2901  -12.0662   25.8693 O.2       1 UNK         0.0000 
     14 C14         3.0423  -10.5351   28.3355 C.ar      1 UNK         0.0000 
     15 C15         2.1045  -11.3129   28.9815 C.ar      1 UNK         0.0000 
     16 C16         1.4710  -12.1168   27.9816 C.ar      1 UNK         0.0000 
     17 C17         0.4582  -13.0854   28.0080 C.ar      1 UNK         0.0000 
     18 N18        -1.7918  -14.9038   27.8971 N.am      1 UNK         0.0000 
     19 C19        -2.9219  -15.8310   28.0360 C.3       1 UNK         0.0000 
     20 C20        -2.5525  -17.3235   28.0573 C.ar      1 UNK         0.0000 
     21 C21        -3.3944  -18.3316   27.5292 C.ar      1 UNK         0.0000 
     22 C22        -4.7429  -18.0040   26.8713 C.3       1 UNK         0.0000 
     23 F23        -5.4125  -19.0972   26.5017 F         1 UNK         0.0000 
     24 F24        -5.5139  -17.3322   27.7246 F         1 UNK         0.0000 
     25 F25        -4.5536  -17.2625   25.7791 F         1 UNK         0.0000 
     26 C26        -2.9920  -19.6753   27.6273 C.ar      1 UNK         0.0000 
     27 C27        -1.7768  -20.0268   28.2194 C.ar      1 UNK         0.0000 
     28 N28        -1.3334  -21.3488   28.3496 N.pl3     1 UNK         0.0000 
     29 S29        -2.4010  -22.7336   28.6148 S.o2      1 UNK         0.0000 
     30 C30        -2.7039  -23.3481   26.8467 C.3       1 UNK         0.0000 
     31 C31        -1.5476  -24.0450   26.1669 C.3       1 UNK         0.0000 
     32 C32        -2.7475  -24.8443   26.6337 C.3       1 UNK         0.0000 
     33 O33        -1.5907  -23.7215   29.3344 O.2       1 UNK         0.0000 
     34 O34        -3.6575  -22.2356   29.1851 O.2       1 UNK         0.0000 
     35 C35        -0.9450  -19.0230   28.6982 C.ar      1 UNK         0.0000 
     36 C36        -1.3264  -17.6913   28.6240 C.ar      1 UNK         0.0000 
     37 H37         0.3818  -13.8206   24.6835 H         1 UNK         0.0000 
     38 H38         2.1386  -12.1367   24.5892 H         1 UNK         0.0000 
     39 H39         4.4086   -9.3319   26.4551 H         1 UNK         0.0000 
     40 H40         3.1694   -9.7103   25.2591 H         1 UNK         0.0000 
     41 H41         5.6585  -11.9962   22.3539 H         1 UNK         0.0000 
     42 H42         6.4876  -12.5364   23.8108 H         1 UNK         0.0000 
     43 H43         7.0828  -11.1323   22.9335 H         1 UNK         0.0000 
     44 H44         4.4763   -8.7724   23.8782 H         1 UNK         0.0000 
     45 H45         5.7783   -9.1238   22.7654 H         1 UNK         0.0000 
     46 H46         4.1899   -9.8323   22.4925 H         1 UNK         0.0000 
     47 H47         3.7317   -9.8029   28.7303 H         1 UNK         0.0000 
     48 H48         1.9033  -11.3044   30.0426 H         1 UNK         0.0000 
     49 H49        -0.0004  -13.3322   28.9541 H         1 UNK         0.0000 
     50 H50        -1.4482  -14.5347   28.7861 H         1 UNK         0.0000 
     51 H51        -3.4146  -15.6035   28.9828 H         1 UNK         0.0000 
     52 H52        -3.6546  -15.6043   27.2653 H         1 UNK         0.0000 
     53 H53        -3.6270  -20.4565   27.2386 H         1 UNK         0.0000 
     54 H54        -0.3838  -21.4749   28.6696 H         1 UNK         0.0000 
     55 H55        -3.3474  -22.6728   26.2819 H         1 UNK         0.0000 
     56 H56        -1.3991  -23.8939   25.0989 H         1 UNK         0.0000 
     57 H57        -0.6033  -24.1402   26.7058 H         1 UNK         0.0000 
     58 H58        -2.6413  -25.5030   27.4974 H         1 UNK         0.0000 
     59 H59        -3.4316  -25.2514   25.8903 H         1 UNK         0.0000 
     60 H60        -0.0121  -19.2735   29.1789 H         1 UNK         0.0000 
     61 H61        -0.6672  -16.9429   29.0415 H         1 UNK         0.0000 
@<TRIPOS>BOND
     1    1    2 2    
     2    2    3 1    
     3    2   18 am   BACKBONE|DICT|INTERRES
     4    3   17 ar   
     5    3    4 ar   
     6    4    5 ar   
     7    4   37 1    
     8    5    6 ar   
     9    5   38 1    
    10    6    7 ar   
    11    6   16 ar   
    12    7    8 1    
    13    7   14 ar   
    14    8    9 1    
    15    8   39 1    
    16    8   40 1    
    17    9   10 am   BACKBONE|DICT|INTERRES
    18    9   13 2    
    19   10   11 1    
    20   10   12 1    
    21   11   41 1    
    22   11   42 1    
    23   11   43 1    
    24   12   44 1    
    25   12   45 1    
    26   12   46 1    
    27   14   15 ar   
    28   14   47 1    
    29   15   16 ar   
    30   15   48 1    
    31   16   17 ar   
    32   17   49 1    
    33   18   19 1    
    34   18   50 1    
    35   19   20 1    
    36   19   51 1    
    37   19   52 1    
    38   20   36 ar   
    39   20   21 ar   
    40   21   22 1    
    41   21   26 ar   
    42   22   23 1    
    43   22   24 1    
    44   22   25 1    
    45   26   27 ar   
    46   26   53 1    
    47   27   28 1    
    48   27   35 ar   
    49   28   29 1    
    50   28   54 1    
    51   29   30 1    
    52   29   33 2    
    53   29   34 2    
    54   30   32 1    
    55   30   31 1    
    56   30   55 1    
    57   31   32 1    
    58   31   56 1    
    59   31   57 1    
    60   32   58 1    
    61   32   59 1    
    62   35   36 ar   
    63   35   60 1    
    64   36   61 1    
@<TRIPOS>SUBSTRUCTURE
     1 UNK         1 GROUP             0       ****    0 ROOT    
