@<TRIPOS>MOLECULE
/home/yujie/leadopt/data/result/selection/sEH/lig_6g.sdf:1
49   52    1
SMALL
USER_CHARGES


@<TRIPOS>ATOM
      1 O1         -1.3290  -15.3329   25.7217 O.2       1 UNK         0.0000 
      2 C2         -0.9701  -14.7395   26.7408 C.2       1 UNK         0.0000 
      3 C3          0.1427  -13.7161   26.6870 C.ar      1 UNK         0.0000 
      4 C4          0.6389  -13.0753   27.8447 C.ar      1 UNK         0.0000 
      5 C5          1.6167  -12.0758   27.7507 C.ar      1 UNK         0.0000 
      6 C6          2.1024  -11.7330   26.4878 C.ar      1 UNK         0.0000 
      7 N7          3.0150  -10.7901   26.0495 N.pl3     1 UNK         0.0000 
      8 C8          3.9312   -9.9878   26.8582 C.3       1 UNK         0.0000 
      9 C9          5.2864  -10.6603   26.9959 C.ar      1 UNK         0.0000 
     10 C10         6.4129  -10.1329   26.3578 C.ar      1 UNK         0.0000 
     11 C11         7.6379  -10.7938   26.4293 C.ar      1 UNK         0.0000 
     12 F12         8.7242  -10.2762   25.8144 F         1 UNK         0.0000 
     13 C13         7.7337  -12.0011   27.1165 C.ar      1 UNK         0.0000 
     14 C14         6.6069  -12.5329   27.7383 C.ar      1 UNK         0.0000 
     15 F15         6.6710  -13.7316   28.3433 F         1 UNK         0.0000 
     16 C16         5.3945  -11.8567   27.7024 C.ar      1 UNK         0.0000 
     17 C17         3.1441  -10.8297   24.6972 C.ar      1 UNK         0.0000 
     18 N18         2.2863  -11.7856   24.2989 N.pl3     1 UNK         0.0000 
     19 O19         3.8874  -10.1636   23.9780 O.2       1 UNK         0.0000 
     20 C20         1.6333  -12.3515   25.3655 C.ar      1 UNK         0.0000 
     21 C21         0.6710  -13.3504   25.4353 C.ar      1 UNK         0.0000 
     22 N22        -1.6313  -14.8921   27.8972 N.am      1 UNK         0.0000 
     23 C23        -2.8060  -15.7440   28.1043 C.3       1 UNK         0.0000 
     24 C24        -2.5473  -17.2594   28.1151 C.ar      1 UNK         0.0000 
     25 C25        -3.5014  -18.1888   27.6374 C.ar      1 UNK         0.0000 
     26 C26        -4.8467  -17.7449   27.0452 C.3       1 UNK         0.0000 
     27 F27        -5.4803  -16.9419   27.8972 F         1 UNK         0.0000 
     28 F28        -4.6433  -17.0908   25.9007 F         1 UNK         0.0000 
     29 F29        -5.6591  -18.7718   26.7873 F         1 UNK         0.0000 
     30 C30        -3.2152  -19.5608   27.7204 C.ar      1 UNK         0.0000 
     31 C31        -2.0091  -20.0126   28.2487 C.ar      1 UNK         0.0000 
     32 C32        -1.0640  -19.0976   28.6972 C.ar      1 UNK         0.0000 
     33 C33        -1.3290  -17.7330   28.6249 C.ar      1 UNK         0.0000 
     34 H34         0.2620  -13.3273   28.8267 H         1 UNK         0.0000 
     35 H35         1.9689  -11.5846   28.6458 H         1 UNK         0.0000 
     36 H36         4.0412   -9.0040   26.4003 H         1 UNK         0.0000 
     37 H37         3.5089   -9.8212   27.8497 H         1 UNK         0.0000 
     38 H38         6.3394   -9.2203   25.7855 H         1 UNK         0.0000 
     39 H39         8.6710  -12.5329   27.1520 H         1 UNK         0.0000 
     40 H40         4.5314  -12.2917   28.1825 H         1 UNK         0.0000 
     41 H41         2.1811  -12.0633   23.3301 H         1 UNK         0.0000 
     42 H42         0.3199  -13.8165   24.5254 H         1 UNK         0.0000 
     43 H43        -1.2439  -14.5329   28.7726 H         1 UNK         0.0000 
     44 H44        -3.5547  -15.4627   27.3670 H         1 UNK         0.0000 
     45 H45        -3.2300  -15.4797   29.0751 H         1 UNK         0.0000 
     46 H46        -3.9261  -20.2952   27.3698 H         1 UNK         0.0000 
     47 H47        -1.8034  -21.0717   28.3040 H         1 UNK         0.0000 
     48 H48        -0.1290  -19.4473   29.1121 H         1 UNK         0.0000 
     49 H49        -0.5874  -17.0411   28.9994 H         1 UNK         0.0000 
@<TRIPOS>BOND
     1    1    2 2    
     2    2    3 1    
     3    2   22 am   BACKBONE|DICT|INTERRES
     4    3   21 ar   
     5    3    4 ar   
     6    4    5 ar   
     7    4   34 1    
     8    5    6 ar   
     9    5   35 1    
    10    6    7 ar   
    11    6   20 ar   
    12    7    8 1    
    13    7   17 ar   
    14    8    9 1    
    15    8   36 1    
    16    8   37 1    
    17    9   16 ar   
    18    9   10 ar   
    19   10   11 ar   
    20   10   38 1    
    21   11   12 1    
    22   11   13 ar   
    23   13   14 ar   
    24   13   39 1    
    25   14   15 1    
    26   14   16 ar   
    27   16   40 1    
    28   17   18 ar   
    29   17   19 2    
    30   18   20 ar   
    31   18   41 1    
    32   20   21 ar   
    33   21   42 1    
    34   22   23 1    
    35   22   43 1    
    36   23   24 1    
    37   23   44 1    
    38   23   45 1    
    39   24   33 ar   
    40   24   25 ar   
    41   25   26 1    
    42   25   30 ar   
    43   26   27 1    
    44   26   28 1    
    45   26   29 1    
    46   30   31 ar   
    47   30   46 1    
    48   31   32 ar   
    49   31   47 1    
    50   32   33 ar   
    51   32   48 1    
    52   33   49 1    
@<TRIPOS>SUBSTRUCTURE
     1 UNK         1 GROUP             0       ****    0 ROOT    
