@<TRIPOS>MOLECULE
/home/yujie/leadopt/data/result/selection/sEH/lig_7f.sdf:1
52   55    1
SMALL
USER_CHARGES


@<TRIPOS>ATOM
      1 O1         -1.3249  -15.3313   25.7253 O.2       1 UNK         0.0000 
      2 C2         -1.0006  -14.8086   26.7968 C.2       1 UNK         0.0000 
      3 C3          0.2346  -13.9469   26.9377 C.ar      1 UNK         0.0000 
      4 C4          1.3450  -14.2049   26.1264 C.ar      1 UNK         0.0000 
      5 C5          2.5145  -13.4443   26.1884 C.ar      1 UNK         0.0000 
      6 C6          2.5358  -12.3750   27.0907 C.ar      1 UNK         0.0000 
      7 N7          3.5034  -11.4356   27.4189 N.pl3     1 UNK         0.0000 
      8 C8          4.8901  -11.3439   26.9609 C.3       1 UNK         0.0000 
      9 C9          5.0530  -11.4103   25.4465 C.ar      1 UNK         0.0000 
     10 C10         5.7747  -12.4580   24.8610 C.ar      1 UNK         0.0000 
     11 C11         5.8857  -12.5469   23.4705 C.ar      1 UNK         0.0000 
     12 F12         6.5677  -13.5714   22.9086 F         1 UNK         0.0000 
     13 C13         5.2904  -11.5830   22.6603 C.ar      1 UNK         0.0000 
     14 C14         4.5832  -10.5300   23.2396 C.ar      1 UNK         0.0000 
     15 C15         4.4636  -10.4414   24.6287 C.ar      1 UNK         0.0000 
     16 N16         3.0656  -10.5826   28.3677 N.2       1 UNK         0.0000 
     17 C17         1.8453  -10.9393   28.6683 C.ar      1 UNK         0.0000 
     18 C18         1.4335  -12.0857   27.9282 C.ar      1 UNK         0.0000 
     19 C19         0.2870  -12.8927   27.8680 C.ar      1 UNK         0.0000 
     20 N20        -1.7381  -14.9628   27.8957 N.am      1 UNK         0.0000 
     21 C21        -2.8916  -15.8481   28.0375 C.3       1 UNK         0.0000 
     22 C22        -2.5772  -17.3510   28.1074 C.ar      1 UNK         0.0000 
     23 C23        -3.5097  -18.3189   27.6744 C.ar      1 UNK         0.0000 
     24 C24        -4.8790  -17.9200   27.1116 C.3       1 UNK         0.0000 
     25 F25        -5.7061  -18.9581   26.9721 F         1 UNK         0.0000 
     26 F26        -5.4850  -17.0465   27.9143 F         1 UNK         0.0000 
     27 F27        -4.6967  -17.3601   25.9131 F         1 UNK         0.0000 
     28 C28        -3.1798  -19.6781   27.7726 C.ar      1 UNK         0.0000 
     29 C29        -1.9438  -20.0970   28.2836 C.ar      1 UNK         0.0000 
     30 O30        -1.5622  -21.4156   28.4260 O.3       1 UNK         0.0000 
     31 C31        -2.4707  -22.4460   28.0557 C.3       1 UNK         0.0000 
     32 C32        -1.0305  -19.1311   28.6972 C.ar      1 UNK         0.0000 
     33 C33        -1.3372  -17.7767   28.6046 C.ar      1 UNK         0.0000 
     34 H34         1.3126  -15.0381   25.4395 H         1 UNK         0.0000 
     35 H35         3.3587  -13.6788   25.5575 H         1 UNK         0.0000 
     36 H36         5.3253  -10.4055   27.3091 H         1 UNK         0.0000 
     37 H37         5.4484  -12.1472   27.4482 H         1 UNK         0.0000 
     38 H38         6.2378  -13.2207   25.4725 H         1 UNK         0.0000 
     39 H39         5.3692  -11.6608   21.5876 H         1 UNK         0.0000 
     40 H40         4.1214   -9.7870   22.6130 H         1 UNK         0.0000 
     41 H41         3.9040   -9.6285   25.0725 H         1 UNK         0.0000 
     42 H42         1.2696  -10.4000   29.4006 H         1 UNK         0.0000 
     43 H43        -0.5562  -12.6693   28.5080 H         1 UNK         0.0000 
     44 H44        -1.3841  -14.5956   28.7841 H         1 UNK         0.0000 
     45 H45        -3.5833  -15.6293   27.2256 H         1 UNK         0.0000 
     46 H46        -3.3995  -15.5704   28.9621 H         1 UNK         0.0000 
     47 H47        -3.8986  -20.4137   27.4435 H         1 UNK         0.0000 
     48 H48        -2.0179  -23.4167   28.2530 H         1 UNK         0.0000 
     49 H49        -2.7167  -22.4032   26.9949 H         1 UNK         0.0000 
     50 H50        -3.3901  -22.3924   28.6380 H         1 UNK         0.0000 
     51 H51        -0.0944  -19.4386   29.1385 H         1 UNK         0.0000 
     52 H52        -0.6072  -17.0599   28.9536 H         1 UNK         0.0000 
@<TRIPOS>BOND
     1    1    2 2    
     2    2    3 1    
     3    2   20 am   BACKBONE|DICT|INTERRES
     4    3   19 ar   
     5    3    4 ar   
     6    4    5 ar   
     7    4   34 1    
     8    5    6 ar   
     9    5   35 1    
    10    6    7 ar   
    11    6   18 ar   
    12    7    8 1    
    13    7   16 ar   
    14    8    9 1    
    15    8   36 1    
    16    8   37 1    
    17    9   15 ar   
    18    9   10 ar   
    19   10   11 ar   
    20   10   38 1    
    21   11   12 1    
    22   11   13 ar   
    23   13   14 ar   
    24   13   39 1    
    25   14   15 ar   
    26   14   40 1    
    27   15   41 1    
    28   16   17 ar   
    29   17   18 ar   
    30   17   42 1    
    31   18   19 ar   
    32   19   43 1    
    33   20   21 1    
    34   20   44 1    
    35   21   22 1    
    36   21   45 1    
    37   21   46 1    
    38   22   33 ar   
    39   22   23 ar   
    40   23   24 1    
    41   23   28 ar   
    42   24   25 1    
    43   24   26 1    
    44   24   27 1    
    45   28   29 ar   
    46   28   47 1    
    47   29   30 1    
    48   29   32 ar   
    49   30   31 1    
    50   31   48 1    
    51   31   49 1    
    52   31   50 1    
    53   32   33 ar   
    54   32   51 1    
    55   33   52 1    
@<TRIPOS>SUBSTRUCTURE
     1 UNK         1 GROUP             0       ****    0 ROOT    
