@<TRIPOS>MOLECULE
/home/yujie/leadopt/data/result/selection/sEH/lig_8b.sdf:1
56   59    1
SMALL
USER_CHARGES


@<TRIPOS>ATOM
      1 O1         -1.3291  -15.3329   25.6500 O.2       1 UNK         0.0000 
      2 C2         -0.9288  -14.9144   26.7373 C.2       1 UNK         0.0000 
      3 C3          0.1463  -13.8512   26.7941 C.ar      1 UNK         0.0000 
      4 C4          0.8583  -13.5366   25.6291 C.ar      1 UNK         0.0000 
      5 C5          1.7773  -12.4928   25.5657 C.ar      1 UNK         0.0000 
      6 C6          1.9691  -11.7421   26.7304 C.ar      1 UNK         0.0000 
      7 N7          2.7481  -10.6224   26.9725 N.pl3     1 UNK         0.0000 
      8 C8          3.6352   -9.9777   26.0146 C.3       1 UNK         0.0000 
      9 C9          5.0075  -10.6289   25.9401 C.ar      1 UNK         0.0000 
     10 C10         5.8397  -10.6319   27.0650 C.ar      1 UNK         0.0000 
     11 C11         7.0885  -11.2460   27.0132 C.ar      1 UNK         0.0000 
     12 F12         7.8703  -11.2625   28.1135 F         1 UNK         0.0000 
     13 C13         7.5254  -11.8445   25.8320 C.ar      1 UNK         0.0000 
     14 C14         6.7052  -11.8347   24.7027 C.ar      1 UNK         0.0000 
     15 C15         5.4472  -11.2312   24.7564 C.ar      1 UNK         0.0000 
     16 C16         2.6257  -10.2701   28.2976 C.ar      1 UNK         0.0000 
     17 C17         1.7414  -11.1146   28.9292 C.ar      1 UNK         0.0000 
     18 C18         1.2966  -12.0544   27.9481 C.ar      1 UNK         0.0000 
     19 C19         0.3925  -13.1218   27.9684 C.ar      1 UNK         0.0000 
     20 N20        -1.4890  -15.2950   27.8972 N.am      1 UNK         0.0000 
     21 C21        -2.7062  -16.0957   28.0328 C.3       1 UNK         0.0000 
     22 C22        -2.5826  -17.6231   27.8902 C.ar      1 UNK         0.0000 
     23 C23        -3.6583  -18.4056   27.4226 C.ar      1 UNK         0.0000 
     24 C24        -4.9346  -17.7818   26.8416 C.3       1 UNK         0.0000 
     25 F25        -5.5616  -17.0791   27.7817 F         1 UNK         0.0000 
     26 F26        -4.6429  -16.9819   25.8143 F         1 UNK         0.0000 
     27 F27        -5.7830  -18.7012   26.3855 F         1 UNK         0.0000 
     28 C28        -3.5660  -19.8019   27.5066 C.ar      1 UNK         0.0000 
     29 C29        -2.4346  -20.4637   27.9869 C.ar      1 UNK         0.0000 
     30 N30        -2.5483  -21.8284   28.1014 N.2       1 UNK         0.0000 
     31 S31        -1.4053  -22.8907   28.2529 S.o2      1 UNK         0.0000 
     32 C32        -1.1263  -23.4154   26.4760 C.3       1 UNK         0.0000 
     33 O33        -1.8807  -24.0983   28.9328 O.2       1 UNK         0.0000 
     34 O34        -0.1054  -22.3820   28.6929 O.2       1 UNK         0.0000 
     35 C35        -1.3389  -19.6652   28.3417 C.ar      1 UNK         0.0000 
     36 C36        -1.4109  -18.2709   28.2984 C.ar      1 UNK         0.0000 
     37 H37         0.6809  -14.0972   24.7212 H         1 UNK         0.0000 
     38 H38         2.2887  -12.2624   24.6424 H         1 UNK         0.0000 
     39 H39         3.1459   -9.9763   25.0388 H         1 UNK         0.0000 
     40 H40         3.7402   -8.9329   26.2925 H         1 UNK         0.0000 
     41 H41         5.5195  -10.1677   27.9878 H         1 UNK         0.0000 
     42 H42         8.4961  -12.3166   25.7959 H         1 UNK         0.0000 
     43 H43         7.0416  -12.3010   23.7886 H         1 UNK         0.0000 
     44 H44         4.8165  -11.2378   23.8785 H         1 UNK         0.0000 
     45 H45         3.1833   -9.4289   28.6825 H         1 UNK         0.0000 
     46 H46         1.4454  -11.0572   29.9654 H         1 UNK         0.0000 
     47 H47        -0.1351  -13.3320   28.8860 H         1 UNK         0.0000 
     48 H48        -1.1099  -14.9540   28.7840 H         1 UNK         0.0000 
     49 H49        -3.4485  -15.6758   27.3574 H         1 UNK         0.0000 
     50 H50        -3.0897  -15.9085   29.0373 H         1 UNK         0.0000 
     51 H51        -4.4074  -20.4066   27.1995 H         1 UNK         0.0000 
     52 H52        -0.3188  -24.1435   26.4546 H         1 UNK         0.0000 
     53 H53        -0.8685  -22.5342   25.8946 H         1 UNK         0.0000 
     54 H54        -2.0477  -23.8589   26.1017 H         1 UNK         0.0000 
     55 H55        -0.4314  -20.0987   28.7274 H         1 UNK         0.0000 
     56 H56        -0.5644  -17.6968   28.6473 H         1 UNK         0.0000 
@<TRIPOS>BOND
     1    1    2 2    
     2    2    3 1    
     3    2   20 am   BACKBONE|DICT|INTERRES
     4    3   19 ar   
     5    3    4 ar   
     6    4    5 ar   
     7    4   37 1    
     8    5    6 ar   
     9    5   38 1    
    10    6    7 ar   
    11    6   18 ar   
    12    7    8 1    
    13    7   16 ar   
    14    8    9 1    
    15    8   39 1    
    16    8   40 1    
    17    9   15 ar   
    18    9   10 ar   
    19   10   11 ar   
    20   10   41 1    
    21   11   12 1    
    22   11   13 ar   
    23   13   14 ar   
    24   13   42 1    
    25   14   15 ar   
    26   14   43 1    
    27   15   44 1    
    28   16   17 ar   
    29   16   45 1    
    30   17   18 ar   
    31   17   46 1    
    32   18   19 ar   
    33   19   47 1    
    34   20   21 1    
    35   20   48 1    
    36   21   22 1    
    37   21   49 1    
    38   21   50 1    
    39   22   36 ar   
    40   22   23 ar   
    41   23   24 1    
    42   23   28 ar   
    43   24   25 1    
    44   24   26 1    
    45   24   27 1    
    46   28   29 ar   
    47   28   51 1    
    48   29   30 1    
    49   29   35 ar   
    50   30   31 1    
    51   31   32 1    
    52   31   33 2    
    53   31   34 2    
    54   32   52 1    
    55   32   53 1    
    56   32   54 1    
    57   35   36 ar   
    58   35   55 1    
    59   36   56 1    
@<TRIPOS>SUBSTRUCTURE
     1 UNK         1 GROUP             0       ****    0 ROOT    
