/home/yujie/leadopt/data/result/selection/sEH/lig_7a.sdf:1
                    3D
 Schrodinger Suite 2020-3.
 53 56  0  0  1  0            999 V2000
   -1.6448  -15.8190   25.8970 O   0  0  0  0  0  0
   -1.3291  -15.2090   26.9129 C   0  0  0  0  0  0
   -0.1963  -14.2131   26.8845 C   0  0  0  0  0  0
    0.7131  -14.2006   25.8102 C   0  0  0  0  0  0
    1.7187  -13.2404   25.7090 C   0  0  0  0  0  0
    1.8242  -12.3021   26.7260 C   0  0  0  0  0  0
    2.6656  -11.2343   26.9141 N   0  0  0  0  0  0
    3.7683  -10.8053   26.0458 C   0  0  0  0  0  0
    5.1644  -11.1881   26.5278 C   0  0  0  0  0  0
    6.2383  -10.3381   26.2504 C   0  0  0  0  0  0
    7.5081  -10.6418   26.7368 C   0  0  0  0  0  0
    7.6956  -11.7923   27.4968 C   0  0  0  0  0  0
    6.6322  -12.6426   27.7772 C   0  0  0  0  0  0
    5.3708  -12.3466   27.2801 C   0  0  0  0  0  0
    2.4187  -10.6531   28.1140 C   0  0  0  0  0  0
    1.3653  -11.3132   28.6269 N   0  0  0  0  0  0
    3.0247   -9.7329   28.6374 O   0  0  0  0  0  0
    0.9819  -12.3293   27.8009 C   0  0  0  0  0  0
   -0.0486  -13.2541   27.8972 C   0  0  0  0  0  0
   -2.0001  -15.3593   28.0612 N   0  0  0  0  0  0
   -3.1431  -16.2452   28.2585 C   0  0  0  0  0  0
   -2.8381  -17.7453   28.1229 C   0  0  0  0  0  0
   -3.7326  -18.6407   27.4972 C   0  0  0  0  0  0
   -5.0126  -18.1531   26.7996 C   0  0  0  0  0  0
   -5.7867  -17.4971   27.6595 F   0  0  0  0  0  0
   -4.6992  -17.3338   25.7960 F   0  0  0  0  0  0
   -5.7285  -19.1549   26.2879 F   0  0  0  0  0  0
   -3.4282  -20.0103   27.4972 C   0  0  0  0  0  0
   -2.2260  -20.4993   28.0322 C   0  0  0  0  0  0
   -1.8522  -21.8296   28.0388 O   0  0  0  0  0  0
   -2.6999  -22.7897   27.4183 C   0  0  0  0  0  0
   -1.3296  -19.5947   28.5900 C   0  0  0  0  0  0
   -1.6316  -18.2349   28.6371 C   0  0  0  0  0  0
    0.6520  -14.9290   25.0248 H   0  0  0  0  0  0
    2.3860  -13.2395   24.8601 H   0  0  0  0  0  0
    3.6239  -11.2193   25.0483 H   0  0  0  0  0  0
    3.7121   -9.7216   25.9331 H   0  0  0  0  0  0
    6.0868   -9.4363   25.6754 H   0  0  0  0  0  0
    8.3389   -9.9851   26.5289 H   0  0  0  0  0  0
    8.6709  -12.0411   27.8829 H   0  0  0  0  0  0
    6.7837  -13.5300   28.3715 H   0  0  0  0  0  0
    4.5488  -13.0101   27.4953 H   0  0  0  0  0  0
    0.9536  -11.1063   29.5243 H   0  0  0  0  0  0
   -0.7425  -13.2050   28.7202 H   0  0  0  0  0  0
   -1.6240  -14.9326   28.9114 H   0  0  0  0  0  0
   -3.9351  -15.9029   27.5963 H   0  0  0  0  0  0
   -3.5134  -16.0717   29.2679 H   0  0  0  0  0  0
   -4.1227  -20.6967   27.0386 H   0  0  0  0  0  0
   -2.2448  -23.7756   27.4990 H   0  0  0  0  0  0
   -2.8379  -22.5752   26.3576 H   0  0  0  0  0  0
   -3.6760  -22.8360   27.9027 H   0  0  0  0  0  0
   -0.3956  -19.9489   29.0050 H   0  0  0  0  0  0
   -0.9194  -17.5636   29.0975 H   0  0  0  0  0  0
  1  2  2  0  0  0
  2  3  1  0  0  0
  2 20  1  0  0  0
  3 19  1  0  0  0
  3  4  2  0  0  0
  4  5  1  0  0  0
  4 34  1  0  0  0
  5  6  2  0  0  0
  5 35  1  0  0  0
  6  7  1  0  0  0
  6 18  1  0  0  0
  7  8  1  0  0  0
  7 15  1  0  0  0
  8  9  1  0  0  0
  8 36  1  0  0  0
  8 37  1  0  0  0
  9 14  1  0  0  0
  9 10  2  0  0  0
 10 11  1  0  0  0
 10 38  1  0  0  0
 11 12  2  0  0  0
 11 39  1  0  0  0
 12 13  1  0  0  0
 12 40  1  0  0  0
 13 14  2  0  0  0
 13 41  1  0  0  0
 14 42  1  0  0  0
 15 16  1  0  0  0
 15 17  2  0  0  0
 16 18  1  0  0  0
 16 43  1  0  0  0
 18 19  2  0  0  0
 19 44  1  0  0  0
 20 21  1  0  0  0
 20 45  1  0  0  0
 21 22  1  0  0  0
 21 46  1  0  0  0
 21 47  1  0  0  0
 22 33  1  0  0  0
 22 23  2  0  0  0
 23 24  1  0  0  0
 23 28  1  0  0  0
 24 25  1  0  0  0
 24 26  1  0  0  0
 24 27  1  0  0  0
 28 29  2  0  0  0
 28 48  1  0  0  0
 29 30  1  0  0  0
 29 32  1  0  0  0
 30 31  1  0  0  0
 31 49  1  0  0  0
 31 50  1  0  0  0
 31 51  1  0  0  0
 32 33  2  0  0  0
 32 52  1  0  0  0
 33 53  1  0  0  0
M  END
> <s_m_source_file>
/home/yujie/leadopt/data/result/selection/sEH/lig_7a.sdf

> <i_m_source_file_index>
1

> <i_lp_mmshare_version>
51139

> <i_f3d_flags>
0

> <s_epik_input>
W0NIM11PYyhbY0hdW2NIXTEpW2NIXWMoQyhGKShGKUYpYzFbQ0gyXVtOSF1DKD1PKWMoW2NIXVtjSF0yKVtjSF1jKGMyMylbbkhdYyg9TyluM1tDSDJdYzRbY0hdW2NIXVtjSF1bY0hdW2NIXTQ=

> <s_epik_cmdline>
J2VwaWtfcHl0aG9uJywgJy1waHQnLCAnMi4wJywgJy1waCcsICc3LjAnLCAnLXRuJywgJzgnLCAnLW1hJywgJzIwMCcsICctaW1hZScsICc8aW5maWxlLm1hZT4nLCAnLW9tYWUnLCAnPG91dGZpbGUubWFlPic=

> <r_lp_tautomer_probability>
1

> <r_epik_Ionization_Penalty>
  0.0000

> <r_epik_Ionization_Penalty_Charging>
  0.0000

> <r_epik_Ionization_Penalty_Neutral>
  0.0000

> <r_epik_State_Penalty>
 -0.0000

> <r_epik_Charging_Adjusted_Penalty>
2.2531e-05

> <i_epik_Tot_Q>
0

> <i_epik_Tot_abs_Q>
0

> <s_lp_Force_Field>
OPLS3e

> <r_lp_Energy>
37.547

> <b_lp_Chiralities_Consistent>
1

> <s_lp_Variant>
/home/yujie/leadopt/data/result/selection/sEH/lig_7a.sdf:1-1

> <s_i_glide_gridfile>
glide-grid_sEH

> <i_i_glide_lignum>
1

> <i_i_glide_rotatable_bonds>
8

> <r_i_docking_score>
-11.6674721641576

> <r_i_glide_ligand_efficiency>
-0.35355976255023

> <r_i_glide_ligand_efficiency_sa>
-1.13405507476329

> <r_i_glide_ligand_efficiency_ln>
-2.5947853983709

> <r_i_glide_gscore>
-11.6674721641576

> <r_i_glide_lipo>
-4.4124698933355

> <r_i_glide_hbond>
-0.72

> <r_i_glide_metal>
-0

> <r_i_glide_rewards>
-2.999536713752

> <r_i_glide_evdw>
-48.1706314086914

> <r_i_glide_ecoul>
-10.0537118911743

> <r_i_glide_erotb>
0.581122797040634

> <r_i_glide_esite>
-0.2

> <r_i_glide_emodel>
-99.6959568909603

> <r_i_glide_energy>
-58.2243432998657

> <r_i_glide_einternal>
5.39325380325317

> <i_i_glide_confnum>
121

> <i_i_glide_posenum>
227

> <r_i_glide_eff_state_penalty>
-0

$$$$
