@<TRIPOS>MOLECULE
/home/yujie/leadopt/data/result/selection/sEH/lig_7b.sdf:1
53   56    1
SMALL
USER_CHARGES


@<TRIPOS>ATOM
      1 O1         -1.6952  -15.6270   25.6977 O.2       1 UNK         0.0000 
      2 C2         -1.3219  -15.0815   26.7316 C.2       1 UNK         0.0000 
      3 C3         -0.1691  -14.1051   26.7132 C.ar      1 UNK         0.0000 
      4 C4          0.6151  -13.9408   25.5501 C.ar      1 UNK         0.0000 
      5 C5          1.6511  -13.0011   25.4984 C.ar      1 UNK         0.0000 
      6 C6          1.9138  -12.2477   26.6401 C.ar      1 UNK         0.0000 
      7 N7          2.8400  -11.2657   26.9265 N.pl3     1 UNK         0.0000 
      8 C8          3.8089  -10.6571   26.0084 C.3       1 UNK         0.0000 
      9 C9          5.2203  -11.2238   26.0744 C.ar      1 UNK         0.0000 
     10 C10         5.6780  -12.0893   25.0763 C.ar      1 UNK         0.0000 
     11 C11         6.9967  -12.5446   25.0937 C.ar      1 UNK         0.0000 
     12 F12         7.4336  -13.3834   24.1277 F         1 UNK         0.0000 
     13 C13         7.8659  -12.1339   26.1049 C.ar      1 UNK         0.0000 
     14 C14         7.4161  -11.2720   27.1041 C.ar      1 UNK         0.0000 
     15 C15         6.0994  -10.8130   27.0836 C.ar      1 UNK         0.0000 
     16 C16         2.7516  -10.9047   28.2329 C.ar      1 UNK         0.0000 
     17 N17         1.6965  -11.5788   28.7195 N.pl3     1 UNK         0.0000 
     18 O18         3.4643  -10.1330   28.8567 O.2       1 UNK         0.0000 
     19 C19         1.1806  -12.4230   27.7787 C.ar      1 UNK         0.0000 
     20 C20         0.1251  -13.3170   27.8376 C.ar      1 UNK         0.0000 
     21 N21        -1.9500  -15.2808   27.8972 N.am      1 UNK         0.0000 
     22 C22        -3.1080  -16.1498   28.0958 C.3       1 UNK         0.0000 
     23 C23        -2.8181  -17.6567   28.0157 C.ar      1 UNK         0.0000 
     24 C24        -3.7260  -18.5710   27.4383 C.ar      1 UNK         0.0000 
     25 C25        -5.0089  -18.1061   26.7314 C.3       1 UNK         0.0000 
     26 F26        -5.7287  -19.1246   26.2601 F         1 UNK         0.0000 
     27 F27        -5.7804  -17.4170   27.5692 F         1 UNK         0.0000 
     28 F28        -4.6994  -17.3274   25.6938 F         1 UNK         0.0000 
     29 C29        -3.4347  -19.9439   27.4972 C.ar      1 UNK         0.0000 
     30 C30        -2.2380  -20.4198   28.0525 C.ar      1 UNK         0.0000 
     31 O31        -1.8789  -21.7511   28.1276 O.3       1 UNK         0.0000 
     32 C32        -2.7518  -22.7393   27.5902 C.3       1 UNK         0.0000 
     33 C33        -1.3295  -19.4986   28.5618 C.ar      1 UNK         0.0000 
     34 C34        -1.6134  -18.1368   28.5459 C.ar      1 UNK         0.0000 
     35 H35         0.4205  -14.5279   24.6649 H         1 UNK         0.0000 
     36 H36         2.2262  -12.8782   24.5926 H         1 UNK         0.0000 
     37 H37         3.4322  -10.7508   24.9894 H         1 UNK         0.0000 
     38 H38         3.8594   -9.5832   26.1966 H         1 UNK         0.0000 
     39 H39         5.0212  -12.4034   24.2785 H         1 UNK         0.0000 
     40 H40         8.8858  -12.4887   26.1128 H         1 UNK         0.0000 
     41 H41         8.0863  -10.9518   27.8884 H         1 UNK         0.0000 
     42 H42         5.7711  -10.1278   27.8518 H         1 UNK         0.0000 
     43 H43         1.3810  -11.5103   29.6751 H         1 UNK         0.0000 
     44 H44        -0.4667  -13.3709   28.7347 H         1 UNK         0.0000 
     45 H45        -1.5397  -14.9176   28.7590 H         1 UNK         0.0000 
     46 H46        -3.8876  -15.8277   27.4074 H         1 UNK         0.0000 
     47 H47        -3.4913  -15.9450   29.0970 H         1 UNK         0.0000 
     48 H48        -4.1367  -20.6462   27.0756 H         1 UNK         0.0000 
     49 H49        -2.3052  -23.7245   27.7238 H         1 UNK         0.0000 
     50 H50        -2.9122  -22.5937   26.5206 H         1 UNK         0.0000 
     51 H51        -3.7152  -22.7429   28.1021 H         1 UNK         0.0000 
     52 H52        -0.4013  -19.8448   28.9961 H         1 UNK         0.0000 
     53 H53        -0.8974  -17.4547   28.9831 H         1 UNK         0.0000 
@<TRIPOS>BOND
     1    1    2 2    
     2    2    3 1    
     3    2   21 am   BACKBONE|DICT|INTERRES
     4    3   20 ar   
     5    3    4 ar   
     6    4    5 ar   
     7    4   35 1    
     8    5    6 ar   
     9    5   36 1    
    10    6    7 ar   
    11    6   19 ar   
    12    7    8 1    
    13    7   16 ar   
    14    8    9 1    
    15    8   37 1    
    16    8   38 1    
    17    9   15 ar   
    18    9   10 ar   
    19   10   11 ar   
    20   10   39 1    
    21   11   12 1    
    22   11   13 ar   
    23   13   14 ar   
    24   13   40 1    
    25   14   15 ar   
    26   14   41 1    
    27   15   42 1    
    28   16   17 ar   
    29   16   18 2    
    30   17   19 ar   
    31   17   43 1    
    32   19   20 ar   
    33   20   44 1    
    34   21   22 1    
    35   21   45 1    
    36   22   23 1    
    37   22   46 1    
    38   22   47 1    
    39   23   34 ar   
    40   23   24 ar   
    41   24   25 1    
    42   24   29 ar   
    43   25   26 1    
    44   25   27 1    
    45   25   28 1    
    46   29   30 ar   
    47   29   48 1    
    48   30   31 1    
    49   30   33 ar   
    50   31   32 1    
    51   32   49 1    
    52   32   50 1    
    53   32   51 1    
    54   33   34 ar   
    55   33   52 1    
    56   34   53 1    
@<TRIPOS>SUBSTRUCTURE
     1 UNK         1 GROUP             0       ****    0 ROOT    
