@<TRIPOS>MOLECULE
/home/yujie/leadopt/data/result/selection/sEH/lig_6n.sdf:1
53   56    1
SMALL
USER_CHARGES


@<TRIPOS>ATOM
      1 O1         -1.3289  -15.3326   25.7126 O.2       1 UNK         0.0000 
      2 C2         -0.9080  -14.7759   26.7299 C.2       1 UNK         0.0000 
      3 C3          0.4026  -14.0193   26.7149 C.ar      1 UNK         0.0000 
      4 C4          0.6305  -12.8845   27.5226 C.ar      1 UNK         0.0000 
      5 C5          1.8710  -12.2246   27.5068 C.ar      1 UNK         0.0000 
      6 C6          2.8931  -12.7323   26.6973 C.ar      1 UNK         0.0000 
      7 N7          4.2383  -12.4184   26.5525 N.pl3     1 UNK         0.0000 
      8 C8          5.0215  -11.4659   27.3618 C.3       1 UNK         0.0000 
      9 C9          5.9443  -10.5366   26.5700 C.ar      1 UNK         0.0000 
     10 C10         7.3129  -10.5121   26.8544 C.ar      1 UNK         0.0000 
     11 C11         8.1709   -9.7217   26.0917 C.ar      1 UNK         0.0000 
     12 C12         7.6661   -8.9401   25.0541 C.ar      1 UNK         0.0000 
     13 C13         6.2986   -8.9418   24.7814 C.ar      1 UNK         0.0000 
     14 C14         5.4249   -9.7351   25.5445 C.ar      1 UNK         0.0000 
     15 O15         4.0584   -9.7758   25.3707 O.3       1 UNK         0.0000 
     16 C16         3.4711   -9.0750   24.2972 C.3       1 UNK         0.0000 
     17 C17         4.8341  -13.2752   25.6736 C.ar      1 UNK         0.0000 
     18 N18         3.8530  -14.1072   25.2822 N.pl3     1 UNK         0.0000 
     19 O19         6.0119  -13.3326   25.3235 O.2       1 UNK         0.0000 
     20 C20         2.6654  -13.8110   25.8964 C.ar      1 UNK         0.0000 
     21 C21         1.4402  -14.4629   25.8793 C.ar      1 UNK         0.0000 
     22 N22        -1.5646  -14.8559   27.8972 N.am      1 UNK         0.0000 
     23 C23        -2.7557  -15.6807   28.1345 C.3       1 UNK         0.0000 
     24 C24        -2.5167  -17.2025   28.1258 C.ar      1 UNK         0.0000 
     25 C25        -3.4658  -18.1195   27.6128 C.ar      1 UNK         0.0000 
     26 C26        -4.7992  -17.6627   27.0069 C.3       1 UNK         0.0000 
     27 F27        -5.4667  -16.9330   27.8972 F         1 UNK         0.0000 
     28 F28        -4.5801  -16.9328   25.9120 F         1 UNK         0.0000 
     29 F29        -5.5859  -18.6835   26.6582 F         1 UNK         0.0000 
     30 C30        -3.1866  -19.4942   27.6727 C.ar      1 UNK         0.0000 
     31 C31        -1.9930  -19.9625   28.2136 C.ar      1 UNK         0.0000 
     32 C32        -1.0528  -19.0611   28.6972 C.ar      1 UNK         0.0000 
     33 C33        -1.3105  -17.6942   28.6488 C.ar      1 UNK         0.0000 
     34 H34        -0.1494  -12.5070   28.1709 H         1 UNK         0.0000 
     35 H35         2.0302  -11.3716   28.1499 H         1 UNK         0.0000 
     36 H36         4.3568  -10.8483   27.9661 H         1 UNK         0.0000 
     37 H37         5.6163  -12.0445   28.0698 H         1 UNK         0.0000 
     38 H38         7.7192  -11.1271   27.6446 H         1 UNK         0.0000 
     39 H39         9.2299   -9.7243   26.2961 H         1 UNK         0.0000 
     40 H40         8.3341   -8.3306   24.4632 H         1 UNK         0.0000 
     41 H41         5.9320   -8.3179   23.9812 H         1 UNK         0.0000 
     42 H42         2.4157   -9.3314   24.2974 H         1 UNK         0.0000 
     43 H43         3.5667   -7.9945   24.4127 H         1 UNK         0.0000 
     44 H44         3.8899   -9.3836   23.3384 H         1 UNK         0.0000 
     45 H45         4.0196  -14.9113   24.6975 H         1 UNK         0.0000 
     46 H46         1.3251  -15.3328   25.2581 H         1 UNK         0.0000 
     47 H47        -1.1263  -14.5329   28.7636 H         1 UNK         0.0000 
     48 H48        -3.5317  -15.3764   27.4375 H         1 UNK         0.0000 
     49 H49        -3.1400  -15.4174   29.1200 H         1 UNK         0.0000 
     50 H50        -3.8939  -20.2187   27.2958 H         1 UNK         0.0000 
     51 H51        -1.7929  -21.0234   28.2525 H         1 UNK         0.0000 
     52 H52        -0.1290  -19.4238   29.1243 H         1 UNK         0.0000 
     53 H53        -0.5725  -17.0136   29.0504 H         1 UNK         0.0000 
@<TRIPOS>BOND
     1    1    2 2    
     2    2    3 1    
     3    2   22 am   BACKBONE|DICT|INTERRES
     4    3   21 ar   
     5    3    4 ar   
     6    4    5 ar   
     7    4   34 1    
     8    5    6 ar   
     9    5   35 1    
    10    6    7 ar   
    11    6   20 ar   
    12    7    8 1    
    13    7   17 ar   
    14    8    9 1    
    15    8   36 1    
    16    8   37 1    
    17    9   14 ar   
    18    9   10 ar   
    19   10   11 ar   
    20   10   38 1    
    21   11   12 ar   
    22   11   39 1    
    23   12   13 ar   
    24   12   40 1    
    25   13   14 ar   
    26   13   41 1    
    27   14   15 1    
    28   15   16 1    
    29   16   42 1    
    30   16   43 1    
    31   16   44 1    
    32   17   18 ar   
    33   17   19 2    
    34   18   20 ar   
    35   18   45 1    
    36   20   21 ar   
    37   21   46 1    
    38   22   23 1    
    39   22   47 1    
    40   23   24 1    
    41   23   48 1    
    42   23   49 1    
    43   24   33 ar   
    44   24   25 ar   
    45   25   26 1    
    46   25   30 ar   
    47   26   27 1    
    48   26   28 1    
    49   26   29 1    
    50   30   31 ar   
    51   30   50 1    
    52   31   32 ar   
    53   31   51 1    
    54   32   33 ar   
    55   32   52 1    
    56   33   53 1    
@<TRIPOS>SUBSTRUCTURE
     1 UNK         1 GROUP             0       ****    0 ROOT    
