@<TRIPOS>MOLECULE
/home/yujie/leadopt/data/result/selection/sEH/lig_10c.sdf:1
56   59    1
SMALL
USER_CHARGES


@<TRIPOS>ATOM
      1 O1         -2.2607  -14.1302   27.8962 O.2       1 UNK         0.0000 
      2 C2         -1.2689  -14.7669   27.5440 C.2       1 UNK         0.0000 
      3 C3          0.0056  -14.0356   27.2029 C.ar      1 UNK         0.0000 
      4 C4          0.9007  -14.5265   26.2540 C.ar      1 UNK         0.0000 
      5 C5          2.0699  -13.8585   25.9022 C.ar      1 UNK         0.0000 
      6 C6          2.3507  -12.6523   26.5610 C.ar      1 UNK         0.0000 
      7 N7          3.4380  -11.7839   26.4524 N.pl3     1 UNK         0.0000 
      8 C8          4.5711  -11.8770   25.5763 C.2       1 UNK         0.0000 
      9 C9          5.8150  -11.0638   25.8479 C.ar      1 UNK         0.0000 
     10 C10         6.3011  -10.8852   27.1526 C.ar      1 UNK         0.0000 
     11 C11         7.4516  -10.1342   27.3829 C.ar      1 UNK         0.0000 
     12 F12         7.8711   -9.9269   28.6496 F         1 UNK         0.0000 
     13 C13         8.1489   -9.5780   26.3112 C.ar      1 UNK         0.0000 
     14 C14         7.6942   -9.7729   25.0078 C.ar      1 UNK         0.0000 
     15 C15         6.5348  -10.5139   24.7774 C.ar      1 UNK         0.0000 
     16 O16         4.5445  -12.6410   24.6081 O.2       1 UNK         0.0000 
     17 C17         3.1982  -10.7263   27.3180 C.ar      1 UNK         0.0000 
     18 C18         2.0303  -10.9110   28.0195 C.ar      1 UNK         0.0000 
     19 C19         1.4629  -12.1299   27.5509 C.ar      1 UNK         0.0000 
     20 C20         0.2920  -12.8337   27.8595 C.ar      1 UNK         0.0000 
     21 N21        -1.2264  -16.1126   27.6044 N.am      1 UNK         0.0000 
     22 C22        -2.2624  -16.8602   28.3309 C.3       1 UNK         0.0000 
     23 C23        -2.2165  -18.3791   28.1536 C.ar      1 UNK         0.0000 
     24 C24        -3.2603  -19.1175   27.5501 C.ar      1 UNK         0.0000 
     25 C25        -4.4971  -18.4345   26.9381 C.3       1 UNK         0.0000 
     26 F26        -5.2202  -17.8590   27.8969 F         1 UNK         0.0000 
     27 F27        -4.1273  -17.4978   26.0626 F         1 UNK         0.0000 
     28 F28        -5.2972  -19.2920   26.2992 F         1 UNK         0.0000 
     29 C29        -3.1520  -20.5186   27.4974 C.ar      1 UNK         0.0000 
     30 C30        -2.0433  -21.1904   28.0198 C.ar      1 UNK         0.0000 
     31 N31        -1.9714  -22.5844   27.8678 N.pl3     1 UNK         0.0000 
     32 S32        -1.2100  -23.6587   29.0582 S.o2      1 UNK         0.0000 
     33 C33        -1.4226  -25.3439   28.2595 C.3       1 UNK         0.0000 
     34 O34        -2.0303  -23.6073   30.2723 O.2       1 UNK         0.0000 
     35 O35         0.2189  -23.3339   29.0951 O.2       1 UNK         0.0000 
     36 C36        -1.0298  -20.4477   28.6286 C.ar      1 UNK         0.0000 
     37 C37        -1.1207  -19.0596   28.6965 C.ar      1 UNK         0.0000 
     38 H38         0.6944  -15.4525   25.7576 H         1 UNK         0.0000 
     39 H39         2.7336  -14.2773   25.1608 H         1 UNK         0.0000 
     40 H40         5.7935  -11.3184   28.0030 H         1 UNK         0.0000 
     41 H41         9.0363   -8.9909   26.4906 H         1 UNK         0.0000 
     42 H42         8.2366   -9.3463   24.1765 H         1 UNK         0.0000 
     43 H43         6.1963  -10.6536   23.7592 H         1 UNK         0.0000 
     44 H44         3.8847   -9.8925   27.3741 H         1 UNK         0.0000 
     45 H45         1.6212  -10.2375   28.7586 H         1 UNK         0.0000 
     46 H46        -0.3898  -12.4456   28.6054 H         1 UNK         0.0000 
     47 H47        -0.3253  -16.5547   27.5127 H         1 UNK         0.0000 
     48 H48        -3.2525  -16.4542   28.1239 H         1 UNK         0.0000 
     49 H49        -2.1096  -16.6567   29.3930 H         1 UNK         0.0000 
     50 H50        -3.9326  -21.0986   27.0262 H         1 UNK         0.0000 
     51 H51        -2.7764  -22.9910   27.4179 H         1 UNK         0.0000 
     52 H52        -0.9464  -26.0886   28.8969 H         1 UNK         0.0000 
     53 H53        -0.9458  -25.3288   27.2810 H         1 UNK         0.0000 
     54 H54        -2.4853  -25.5591   28.1622 H         1 UNK         0.0000 
     55 H55        -0.1506  -20.9231   29.0389 H         1 UNK         0.0000 
     56 H56        -0.3226  -18.5106   29.1771 H         1 UNK         0.0000 
@<TRIPOS>BOND
     1    1    2 2    
     2    2    3 1    
     3    2   21 am   BACKBONE|DICT|INTERRES
     4    3   20 ar   
     5    3    4 ar   
     6    4    5 ar   
     7    4   38 1    
     8    5    6 ar   
     9    5   39 1    
    10    6    7 ar   
    11    6   19 ar   
    12    7    8 1    
    13    7   17 ar   
    14    8    9 1    
    15    8   16 2    
    16    9   15 ar   
    17    9   10 ar   
    18   10   11 ar   
    19   10   40 1    
    20   11   12 1    
    21   11   13 ar   
    22   13   14 ar   
    23   13   41 1    
    24   14   15 ar   
    25   14   42 1    
    26   15   43 1    
    27   17   18 ar   
    28   17   44 1    
    29   18   19 ar   
    30   18   45 1    
    31   19   20 ar   
    32   20   46 1    
    33   21   22 1    
    34   21   47 1    
    35   22   23 1    
    36   22   48 1    
    37   22   49 1    
    38   23   37 ar   
    39   23   24 ar   
    40   24   25 1    
    41   24   29 ar   
    42   25   26 1    
    43   25   27 1    
    44   25   28 1    
    45   29   30 ar   
    46   29   50 1    
    47   30   31 1    
    48   30   36 ar   
    49   31   32 1    
    50   31   51 1    
    51   32   33 1    
    52   32   34 2    
    53   32   35 2    
    54   33   52 1    
    55   33   53 1    
    56   33   54 1    
    57   36   37 ar   
    58   36   55 1    
    59   37   56 1    
@<TRIPOS>SUBSTRUCTURE
     1 UNK         1 GROUP             0       ****    0 ROOT    
