@<TRIPOS>MOLECULE
/home/yujie/leadopt/data/result/selection/sEH/lig_6m.sdf:1
52   55    1
SMALL
USER_CHARGES


@<TRIPOS>ATOM
      1 O1         -1.4447  -15.7334   25.8397 O.2       1 UNK         0.0000 
      2 C2         -1.2422  -15.0192   26.8121 C.2       1 UNK         0.0000 
      3 C3         -0.1306  -14.0022   26.7974 C.ar      1 UNK         0.0000 
      4 C4          0.6468  -13.7916   25.6351 C.ar      1 UNK         0.0000 
      5 C5          1.6774  -12.8454   25.6136 C.ar      1 UNK         0.0000 
      6 C6          1.9328  -12.1294   26.7802 C.ar      1 UNK         0.0000 
      7 N7          2.8606  -11.1652   27.1110 N.pl3     1 UNK         0.0000 
      8 C8          3.8250  -10.5058   26.2203 C.3       1 UNK         0.0000 
      9 C9          5.2339  -11.1108   26.1135 C.ar      1 UNK         0.0000 
     10 C10         5.8568  -11.6303   27.2594 C.ar      1 UNK         0.0000 
     11 C11         7.1532  -12.1326   27.2059 C.ar      1 UNK         0.0000 
     12 C12         7.8469  -12.1355   26.0016 C.ar      1 UNK         0.0000 
     13 C13         7.2409  -11.6391   24.8502 C.ar      1 UNK         0.0000 
     14 C14         5.9361  -11.1211   24.8853 C.ar      1 UNK         0.0000 
     15 C15         5.3242  -10.5577   23.5943 C.3       1 UNK         0.0000 
     16 F16         4.2731  -11.2954   23.2370 F         1 UNK         0.0000 
     17 F17         4.9298   -9.2973   23.7829 F         1 UNK         0.0000 
     18 F18         6.1848  -10.5592   22.5735 F         1 UNK         0.0000 
     19 C19         2.7577  -10.8603   28.4298 C.ar      1 UNK         0.0000 
     20 N20         1.6990  -11.5419   28.8841 N.pl3     1 UNK         0.0000 
     21 O21         3.4711  -10.1329   29.0949 O.2       1 UNK         0.0000 
     22 C22         1.1959  -12.3440   27.9082 C.ar      1 UNK         0.0000 
     23 C23         0.1525  -13.2440   27.9411 C.ar      1 UNK         0.0000 
     24 N24        -2.0279  -15.0764   27.8973 N.am      1 UNK         0.0000 
     25 C25        -3.1591  -15.9875   28.0740 C.3       1 UNK         0.0000 
     26 C26        -2.8179  -17.4880   28.0721 C.ar      1 UNK         0.0000 
     27 C27        -3.6805  -18.4523   27.5019 C.ar      1 UNK         0.0000 
     28 C28        -4.9964  -18.0581   26.8189 C.3       1 UNK         0.0000 
     29 F29        -5.7318  -17.3339   27.6574 F         1 UNK         0.0000 
     30 F30        -4.7477  -17.3325   25.7273 F         1 UNK         0.0000 
     31 F31        -5.7263  -19.1129   26.4502 F         1 UNK         0.0000 
     32 C32        -3.3239  -19.8085   27.5656 C.ar      1 UNK         0.0000 
     33 C33        -2.1290  -20.2090   28.1594 C.ar      1 UNK         0.0000 
     34 C34        -1.2669  -19.2576   28.6938 C.ar      1 UNK         0.0000 
     35 C35        -1.6062  -17.9076   28.6432 C.ar      1 UNK         0.0000 
     36 H36         0.4575  -14.3533   24.7319 H         1 UNK         0.0000 
     37 H37         2.2562  -12.6932   24.7139 H         1 UNK         0.0000 
     38 H38         3.3522  -10.4576   25.2421 H         1 UNK         0.0000 
     39 H39         3.9401   -9.4685   26.5396 H         1 UNK         0.0000 
     40 H40         5.3568  -11.6322   28.2147 H         1 UNK         0.0000 
     41 H41         7.6177  -12.5149   28.1030 H         1 UNK         0.0000 
     42 H42         8.8542  -12.5245   25.9598 H         1 UNK         0.0000 
     43 H43         7.8049  -11.6547   23.9284 H         1 UNK         0.0000 
     44 H44         1.3804  -11.5154   29.8411 H         1 UNK         0.0000 
     45 H45        -0.4184  -13.3327   28.8501 H         1 UNK         0.0000 
     46 H46        -1.7360  -14.5895   28.7459 H         1 UNK         0.0000 
     47 H47        -3.8935  -15.7327   27.3118 H         1 UNK         0.0000 
     48 H48        -3.6270  -15.7538   29.0326 H         1 UNK         0.0000 
     49 H49        -3.9679  -20.5681   27.1463 H         1 UNK         0.0000 
     50 H50        -1.8674  -21.2563   28.1960 H         1 UNK         0.0000 
     51 H51        -0.3342  -19.5655   29.1475 H         1 UNK         0.0000 
     52 H52        -0.9288  -17.1855   29.0783 H         1 UNK         0.0000 
@<TRIPOS>BOND
     1    1    2 2    
     2    2    3 1    
     3    2   24 am   BACKBONE|DICT|INTERRES
     4    3   23 ar   
     5    3    4 ar   
     6    4    5 ar   
     7    4   36 1    
     8    5    6 ar   
     9    5   37 1    
    10    6    7 ar   
    11    6   22 ar   
    12    7    8 1    
    13    7   19 ar   
    14    8    9 1    
    15    8   38 1    
    16    8   39 1    
    17    9   14 ar   
    18    9   10 ar   
    19   10   11 ar   
    20   10   40 1    
    21   11   12 ar   
    22   11   41 1    
    23   12   13 ar   
    24   12   42 1    
    25   13   14 ar   
    26   13   43 1    
    27   14   15 1    
    28   15   16 1    
    29   15   17 1    
    30   15   18 1    
    31   19   20 ar   
    32   19   21 2    
    33   20   22 ar   
    34   20   44 1    
    35   22   23 ar   
    36   23   45 1    
    37   24   25 1    
    38   24   46 1    
    39   25   26 1    
    40   25   47 1    
    41   25   48 1    
    42   26   35 ar   
    43   26   27 ar   
    44   27   28 1    
    45   27   32 ar   
    46   28   29 1    
    47   28   30 1    
    48   28   31 1    
    49   32   33 ar   
    50   32   49 1    
    51   33   34 ar   
    52   33   50 1    
    53   34   35 ar   
    54   34   51 1    
    55   35   52 1    
@<TRIPOS>SUBSTRUCTURE
     1 UNK         1 GROUP             0       ****    0 ROOT    
