@<TRIPOS>MOLECULE
/home/yujie/leadopt/data/result/selection/sEH/lig_8g.sdf:1
58   61    1
SMALL
USER_CHARGES


@<TRIPOS>ATOM
      1 O1         -1.3290  -15.3332   25.6701 O.2       1 UNK         0.0000 
      2 C2         -0.9957  -14.9250   26.7814 C.2       1 UNK         0.0000 
      3 C3          0.1363  -13.9310   26.9076 C.ar      1 UNK         0.0000 
      4 C4          1.0798  -13.8288   25.8773 C.ar      1 UNK         0.0000 
      5 C5          2.0625  -12.8412   25.8515 C.ar      1 UNK         0.0000 
      6 C6          2.0737  -11.9260   26.9093 C.ar      1 UNK         0.0000 
      7 N7          2.8510  -10.8011   27.1328 N.pl3     1 UNK         0.0000 
      8 C8          3.9384  -10.3233   26.2888 C.3       1 UNK         0.0000 
      9 C9          5.2804  -10.9638   26.6140 C.ar      1 UNK         0.0000 
     10 C10         5.9832  -11.6675   25.6308 C.ar      1 UNK         0.0000 
     11 C11         7.2162  -12.2462   25.9307 C.ar      1 UNK         0.0000 
     12 F12         7.8893  -12.9327   24.9807 F         1 UNK         0.0000 
     13 C13         7.7519  -12.1227   27.2125 C.ar      1 UNK         0.0000 
     14 C14         7.0596  -11.4191   28.1974 C.ar      1 UNK         0.0000 
     15 C15         5.8281  -10.8427   27.8971 C.ar      1 UNK         0.0000 
     16 C16         2.4979  -10.2488   28.3414 C.ar      1 UNK         0.0000 
     17 C17         1.4836  -10.9796   28.9184 C.ar      1 UNK         0.0000 
     18 C18         1.1662  -12.0316   28.0050 C.ar      1 UNK         0.0000 
     19 C19         0.2048  -13.0469   27.9937 C.ar      1 UNK         0.0000 
     20 N20        -1.6707  -15.2498   27.8972 N.am      1 UNK         0.0000 
     21 C21        -2.9214  -16.0131   27.9674 C.3       1 UNK         0.0000 
     22 C22        -2.8257  -17.5421   27.8247 C.ar      1 UNK         0.0000 
     23 C23        -3.8487  -18.3012   27.2107 C.ar      1 UNK         0.0000 
     24 C24        -5.0853  -17.6492   26.5803 C.3       1 UNK         0.0000 
     25 F25        -5.9480  -18.5385   26.0885 F         1 UNK         0.0000 
     26 F26        -5.7281  -16.9348   27.4993 F         1 UNK         0.0000 
     27 F27        -4.7218  -16.8551   25.5724 F         1 UNK         0.0000 
     28 C28        -3.7295  -19.6975   27.1685 C.ar      1 UNK         0.0000 
     29 C29        -2.6124  -20.3509   27.6885 C.ar      1 UNK         0.0000 
     30 C30        -2.4661  -21.8560   27.4971 C.3       1 UNK         0.0000 
     31 S31        -3.6767  -22.8917   28.5123 S.o2      1 UNK         0.0000 
     32 C32        -3.4828  -24.6173   27.8032 C.3       1 UNK         0.0000 
     33 O33        -5.0395  -22.4432   28.2136 O.2       1 UNK         0.0000 
     34 O34        -3.2032  -22.9328   29.8972 O.2       1 UNK         0.0000 
     35 C35        -1.6074  -19.5988   28.2972 C.ar      1 UNK         0.0000 
     36 C36        -1.7068  -18.2082   28.3442 C.ar      1 UNK         0.0000 
     37 H37         1.0409  -14.5144   25.0423 H         1 UNK         0.0000 
     38 H38         2.7559  -12.7697   25.0265 H         1 UNK         0.0000 
     39 H39         3.6633  -10.4996   25.2477 H         1 UNK         0.0000 
     40 H40         4.0124   -9.2426   26.3951 H         1 UNK         0.0000 
     41 H41         5.5802  -11.7719   24.6337 H         1 UNK         0.0000 
     42 H42         8.7032  -12.5723   27.4428 H         1 UNK         0.0000 
     43 H43         7.4710  -11.3184   29.1916 H         1 UNK         0.0000 
     44 H44         5.3042  -10.2971   28.6681 H         1 UNK         0.0000 
     45 H45         3.0199   -9.3716   28.6972 H         1 UNK         0.0000 
     46 H46         1.0262  -10.7758   29.8740 H         1 UNK         0.0000 
     47 H47        -0.5166  -13.0912   28.7963 H         1 UNK         0.0000 
     48 H48        -1.3240  -14.9330   28.8064 H         1 UNK         0.0000 
     49 H49        -3.6086  -15.5823   27.2434 H         1 UNK         0.0000 
     50 H50        -3.3610  -15.8107   28.9455 H         1 UNK         0.0000 
     51 H51        -4.4957  -20.2925   26.6916 H         1 UNK         0.0000 
     52 H52        -1.4635  -22.2011   27.7504 H         1 UNK         0.0000 
     53 H53        -2.6377  -22.1130   26.4521 H         1 UNK         0.0000 
     54 H54        -4.1436  -25.2844   28.3540 H         1 UNK         0.0000 
     55 H55        -2.4471  -24.9334   27.9213 H         1 UNK         0.0000 
     56 H56        -3.7592  -24.5976   26.7503 H         1 UNK         0.0000 
     57 H57        -0.7283  -20.0809   28.7018 H         1 UNK         0.0000 
     58 H58        -0.9130  -17.6474   28.8161 H         1 UNK         0.0000 
@<TRIPOS>BOND
     1    1    2 2    
     2    2    3 1    
     3    2   20 am   BACKBONE|DICT|INTERRES
     4    3   19 ar   
     5    3    4 ar   
     6    4    5 ar   
     7    4   37 1    
     8    5    6 ar   
     9    5   38 1    
    10    6    7 ar   
    11    6   18 ar   
    12    7    8 1    
    13    7   16 ar   
    14    8    9 1    
    15    8   39 1    
    16    8   40 1    
    17    9   15 ar   
    18    9   10 ar   
    19   10   11 ar   
    20   10   41 1    
    21   11   12 1    
    22   11   13 ar   
    23   13   14 ar   
    24   13   42 1    
    25   14   15 ar   
    26   14   43 1    
    27   15   44 1    
    28   16   17 ar   
    29   16   45 1    
    30   17   18 ar   
    31   17   46 1    
    32   18   19 ar   
    33   19   47 1    
    34   20   21 1    
    35   20   48 1    
    36   21   22 1    
    37   21   49 1    
    38   21   50 1    
    39   22   36 ar   
    40   22   23 ar   
    41   23   24 1    
    42   23   28 ar   
    43   24   25 1    
    44   24   26 1    
    45   24   27 1    
    46   28   29 ar   
    47   28   51 1    
    48   29   30 1    
    49   29   35 ar   
    50   30   31 1    
    51   30   52 1    
    52   30   53 1    
    53   31   32 1    
    54   31   33 2    
    55   31   34 2    
    56   32   54 1    
    57   32   55 1    
    58   32   56 1    
    59   35   36 ar   
    60   35   57 1    
    61   36   58 1    
@<TRIPOS>SUBSTRUCTURE
     1 UNK         1 GROUP             0       ****    0 ROOT    
