/home/yujie/leadopt/data/result/selection/sEH/lig_6f.sdf:1
                    3D
 Schrodinger Suite 2020-3.
 49 52  0  0  1  0            999 V2000
   -1.3315  -15.3330   25.6912 O   0  0  0  0  0  0
   -0.8651  -14.8262   26.7109 C   0  0  0  0  0  0
    0.4609  -14.1239   26.6288 C   0  0  0  0  0  0
    0.6494  -12.8349   27.1618 C   0  0  0  0  0  0
    1.8238  -12.1195   26.8911 C   0  0  0  0  0  0
    2.8182  -12.7383   26.1298 C   0  0  0  0  0  0
    4.0383  -12.3164   25.6432 N   0  0  0  0  0  0
    4.5393  -10.9477   25.6399 C   0  0  0  0  0  0
    5.7079  -10.6795   26.5668 C   0  0  0  0  0  0
    5.6111  -10.9339   27.9385 C   0  0  0  0  0  0
    6.6438  -10.5333   28.7836 C   0  0  0  0  0  0
    7.7464   -9.8703   28.2509 C   0  0  0  0  0  0
    8.6708   -9.3311   29.0724 F   0  0  0  0  0  0
    7.8845   -9.7106   26.8768 C   0  0  0  0  0  0
    6.8629  -10.1136   26.0298 C   0  0  0  0  0  0
    4.7030  -13.3306   25.0268 C   0  0  0  0  0  0
    3.8592  -14.3753   25.0973 N   0  0  0  0  0  0
    5.8141  -13.3198   24.4987 O   0  0  0  0  0  0
    2.6871  -14.0298   25.7192 C   0  0  0  0  0  0
    1.5087  -14.7302   25.9149 C   0  0  0  0  0  0
   -1.4929  -14.8802   27.8972 N   0  0  0  0  0  0
   -2.6968  -15.6869   28.1511 C   0  0  0  0  0  0
   -2.4841  -17.2152   28.1315 C   0  0  0  0  0  0
   -3.4412  -18.1228   27.6128 C   0  0  0  0  0  0
   -4.7694  -17.6602   27.0045 C   0  0  0  0  0  0
   -4.5407  -16.9311   25.9125 F   0  0  0  0  0  0
   -5.5601  -18.6756   26.6492 F   0  0  0  0  0  0
   -5.4370  -16.9347   27.8963 F   0  0  0  0  0  0
   -3.1771  -19.5006   27.6674 C   0  0  0  0  0  0
   -1.9911  -19.9845   28.2079 C   0  0  0  0  0  0
   -1.0445  -19.0947   28.6970 C   0  0  0  0  0  0
   -1.2866  -17.7244   28.6559 C   0  0  0  0  0  0
   -0.1375  -12.3515   27.7245 H   0  0  0  0  0  0
    1.9306  -11.1069   27.2503 H   0  0  0  0  0  0
    4.8186  -10.6883   24.6167 H   0  0  0  0  0  0
    3.7318  -10.2646   25.9048 H   0  0  0  0  0  0
    4.7222  -11.3866   28.3537 H   0  0  0  0  0  0
    6.5641  -10.6643   29.8549 H   0  0  0  0  0  0
    8.7544   -9.2138   26.4748 H   0  0  0  0  0  0
    6.9504   -9.9373   24.9673 H   0  0  0  0  0  0
    4.0900  -15.2985   24.7599 H   0  0  0  0  0  0
    1.4200  -15.7283   25.5015 H   0  0  0  0  0  0
   -1.0463  -14.5329   28.7511 H   0  0  0  0  0  0
   -3.4829  -15.3613   27.4731 H   0  0  0  0  0  0
   -3.0586  -15.4239   29.1447 H   0  0  0  0  0  0
   -3.8906  -20.2171   27.2867 H   0  0  0  0  0  0
   -1.8027  -21.0477   28.2422 H   0  0  0  0  0  0
   -0.1290  -19.4725   29.1253 H   0  0  0  0  0  0
   -0.5418  -17.0541   29.0629 H   0  0  0  0  0  0
  1  2  2  0  0  0
  2  3  1  0  0  0
  2 21  1  0  0  0
  3 20  1  0  0  0
  3  4  2  0  0  0
  4  5  1  0  0  0
  4 33  1  0  0  0
  5  6  2  0  0  0
  5 34  1  0  0  0
  6  7  1  0  0  0
  6 19  1  0  0  0
  7  8  1  0  0  0
  7 16  1  0  0  0
  8  9  1  0  0  0
  8 35  1  0  0  0
  8 36  1  0  0  0
  9 15  1  0  0  0
  9 10  2  0  0  0
 10 11  1  0  0  0
 10 37  1  0  0  0
 11 12  2  0  0  0
 11 38  1  0  0  0
 12 13  1  0  0  0
 12 14  1  0  0  0
 14 15  2  0  0  0
 14 39  1  0  0  0
 15 40  1  0  0  0
 16 17  1  0  0  0
 16 18  2  0  0  0
 17 19  1  0  0  0
 17 41  1  0  0  0
 19 20  2  0  0  0
 20 42  1  0  0  0
 21 22  1  0  0  0
 21 43  1  0  0  0
 22 23  1  0  0  0
 22 44  1  0  0  0
 22 45  1  0  0  0
 23 32  1  0  0  0
 23 24  2  0  0  0
 24 25  1  0  0  0
 24 29  1  0  0  0
 25 26  1  0  0  0
 25 27  1  0  0  0
 25 28  1  0  0  0
 29 30  2  0  0  0
 29 46  1  0  0  0
 30 31  1  0  0  0
 30 47  1  0  0  0
 31 32  2  0  0  0
 31 48  1  0  0  0
 32 49  1  0  0  0
M  END
> <s_m_source_file>
/home/yujie/leadopt/data/result/selection/sEH/lig_6f.sdf

> <i_m_source_file_index>
1

> <i_lp_mmshare_version>
51139

> <i_f3d_flags>
0

> <s_epik_input>
W2NIXTFbY0hdW2NIXVtjSF1jKEMoRikoRilGKWMxW0NIMl1bTkhdQyg9TyljKFtjSF1bY0hdMilbY0hdYyhjMjMpW25IXWMoPU8pbjNbQ0gyXWM0W2NIXVtjSF1jKEYpW2NIXVtjSF00

> <s_epik_cmdline>
J2VwaWtfcHl0aG9uJywgJy1waHQnLCAnMi4wJywgJy1waCcsICc3LjAnLCAnLXRuJywgJzgnLCAnLW1hJywgJzIwMCcsICctaW1hZScsICc8aW5maWxlLm1hZT4nLCAnLW9tYWUnLCAnPG91dGZpbGUubWFlPic=

> <r_lp_tautomer_probability>
1

> <r_epik_Ionization_Penalty>
  0.0000

> <r_epik_Ionization_Penalty_Charging>
  0.0000

> <r_epik_Ionization_Penalty_Neutral>
  0.0000

> <r_epik_State_Penalty>
 -0.0000

> <r_epik_Charging_Adjusted_Penalty>
2.36287e-05

> <i_epik_Tot_Q>
0

> <i_epik_Tot_abs_Q>
0

> <s_lp_Force_Field>
OPLS3e

> <r_lp_Energy>
30.8301

> <b_lp_Chiralities_Consistent>
1

> <s_lp_Variant>
/home/yujie/leadopt/data/result/selection/sEH/lig_6f.sdf:1-1

> <s_i_glide_gridfile>
glide-grid_sEH

> <i_i_glide_lignum>
1

> <i_i_glide_rotatable_bonds>
7

> <r_i_docking_score>
-11.1215433969377

> <r_i_glide_ligand_efficiency>
-0.347548231154303

> <r_i_glide_ligand_efficiency_sa>
-1.10339685421336

> <r_i_glide_ligand_efficiency_ln>
-2.49041672839749

> <r_i_glide_gscore>
-11.1215433969377

> <r_i_glide_lipo>
-4.18736187293924

> <r_i_glide_hbond>
-0.710616956598404

> <r_i_glide_metal>
-0

> <r_i_glide_rewards>
-2.4576173037532

> <r_i_glide_evdw>
-40.5770111083984

> <r_i_glide_ecoul>
-14.1688919067383

> <r_i_glide_erotb>
0.610117398448376

> <r_i_glide_esite>
-0.221880320664557

> <r_i_glide_emodel>
-93.9993305312496

> <r_i_glide_energy>
-54.7459030151367

> <r_i_glide_einternal>
4.06155824661255

> <i_i_glide_confnum>
59

> <i_i_glide_posenum>
386

> <r_i_glide_eff_state_penalty>
-0

$$$$
