/home/yujie/leadopt/data/result/selection/sEH/lig_11d.sdf:1
                    3D
 Schrodinger Suite 2020-3.
 56 59  0  0  1  0            999 V2000
   -1.3289  -15.3329   25.6664 O   0  0  0  0  0  0
   -0.9763  -14.9249   26.7749 C   0  0  0  0  0  0
    0.1897  -13.9734   26.8995 C   0  0  0  0  0  0
    1.1581  -13.9418   25.8899 C   0  0  0  0  0  0
    2.2460  -13.0739   25.9133 C   0  0  0  0  0  0
    2.3546  -12.2138   27.0127 C   0  0  0  0  0  0
    3.3287  -11.2829   27.3434 N   0  0  0  0  0  0
    4.5009  -10.9623   26.5168 C   0  0  0  0  0  0
    5.7398  -10.6399   27.3756 C   0  0  0  0  0  0
    4.1394   -9.8426   25.5227 C   0  0  0  0  0  0
    2.9478  -10.6493   28.5088 C   0  0  0  0  0  0
    1.7799  -11.1981   28.9887 C   0  0  0  0  0  0
    1.3775  -12.2010   28.0538 C   0  0  0  0  0  0
    0.2955  -13.0881   27.9832 C   0  0  0  0  0  0
   -1.6331  -15.2629   27.8972 N   0  0  0  0  0  0
   -2.8622  -16.0607   27.9285 C   0  0  0  0  0  0
   -2.7253  -17.5938   27.9127 C   0  0  0  0  0  0
   -3.8194  -18.4128   27.5617 C   0  0  0  0  0  0
   -5.1379  -17.8247   27.0384 C   0  0  0  0  0  0
   -6.0774  -18.7497   26.8668 F   0  0  0  0  0  0
   -5.6202  -16.9330   27.8973 F   0  0  0  0  0  0
   -4.9357  -17.2348   25.8589 F   0  0  0  0  0  0
   -3.7104  -19.8008   27.7210 C   0  0  0  0  0  0
   -2.5485  -20.4214   28.1840 C   0  0  0  0  0  0
   -2.6346  -21.7736   28.4146 N   0  5  0  0  0  0
   -1.4484  -22.7865   28.6169 S   0  0  0  0  0  0
   -1.7114  -24.1133   27.2721 C   0  0  0  0  0  0
   -3.1271  -24.4876   26.8865 C   0  0  0  0  0  0
   -2.2728  -23.6757   25.9358 C   0  0  0  0  0  0
   -0.1191  -22.2584   28.3022 O   0  0  0  0  0  0
   -1.5748  -23.5210   29.8801 O   0  0  0  0  0  0
   -1.4447  -19.5952   28.4357 C   0  0  0  0  0  0
   -1.5276  -18.2083   28.2986 C   0  0  0  0  0  0
    1.0760  -14.6086   25.0433 H   0  0  0  0  0  0
    2.9740  -13.0831   25.1165 H   0  0  0  0  0  0
    4.7541  -11.8611   25.9511 H   0  0  0  0  0  0
    6.6238  -10.5024   26.7505 H   0  0  0  0  0  0
    5.9578  -11.4484   28.0745 H   0  0  0  0  0  0
    5.6139   -9.7327   27.9558 H   0  0  0  0  0  0
    4.9841   -9.5930   24.8816 H   0  0  0  0  0  0
    3.3151  -10.1431   24.8732 H   0  0  0  0  0  0
    3.8320   -8.9339   26.0373 H   0  0  0  0  0  0
    3.5567   -9.8535   28.9141 H   0  0  0  0  0  0
    1.2729  -10.9106   29.8974 H   0  0  0  0  0  0
   -0.4552  -13.0680   28.7585 H   0  0  0  0  0  0
   -1.2974  -14.9393   28.8088 H   0  0  0  0  0  0
   -3.3934  -15.7907   28.8443 H   0  0  0  0  0  0
   -3.4936  -15.7335   27.1035 H   0  0  0  0  0  0
   -4.5612  -20.4287   27.4978 H   0  0  0  0  0  0
   -0.9392  -24.8787   27.3195 H   0  0  0  0  0  0
   -3.3355  -25.5307   26.6530 H   0  0  0  0  0  0
   -3.9558  -24.0074   27.4062 H   0  0  0  0  0  0
   -2.5062  -22.6227   25.7792 H   0  0  0  0  0  0
   -1.8779  -24.1492   25.0391 H   0  0  0  0  0  0
   -0.5202  -20.0014   28.8160 H   0  0  0  0  0  0
   -0.6660  -17.6136   28.5643 H   0  0  0  0  0  0
  1  2  2  0  0  0
  2  3  1  0  0  0
  2 15  1  0  0  0
  3 14  1  0  0  0
  3  4  2  0  0  0
  4  5  1  0  0  0
  4 34  1  0  0  0
  5  6  2  0  0  0
  5 35  1  0  0  0
  6  7  1  0  0  0
  6 13  1  0  0  0
  7  8  1  0  0  0
  7 11  1  0  0  0
  8  9  1  0  0  0
  8 10  1  0  0  0
  8 36  1  0  0  0
  9 37  1  0  0  0
  9 38  1  0  0  0
  9 39  1  0  0  0
 10 40  1  0  0  0
 10 41  1  0  0  0
 10 42  1  0  0  0
 11 12  2  0  0  0
 11 43  1  0  0  0
 12 13  1  0  0  0
 12 44  1  0  0  0
 13 14  2  0  0  0
 14 45  1  0  0  0
 15 16  1  0  0  0
 15 46  1  0  0  0
 16 17  1  0  0  0
 16 47  1  0  0  0
 16 48  1  0  0  0
 17 33  1  0  0  0
 17 18  2  0  0  0
 18 19  1  0  0  0
 18 23  1  0  0  0
 19 20  1  0  0  0
 19 21  1  0  0  0
 19 22  1  0  0  0
 23 24  2  0  0  0
 23 49  1  0  0  0
 24 25  1  0  0  0
 24 32  1  0  0  0
 25 26  1  0  0  0
 26 27  1  0  0  0
 26 30  2  0  0  0
 26 31  2  0  0  0
 27 29  1  0  0  0
 27 28  1  0  0  0
 27 50  1  0  0  0
 28 29  1  0  0  0
 28 51  1  0  0  0
 28 52  1  0  0  0
 29 53  1  0  0  0
 29 54  1  0  0  0
 32 33  2  0  0  0
 32 55  1  0  0  0
 33 56  1  0  0  0
M  CHG  1  25  -1
M  END
> <s_m_source_file>
/home/yujie/leadopt/data/result/selection/sEH/lig_11d.sdf

> <i_m_source_file_index>
1

> <i_lp_mmshare_version>
51139

> <i_f3d_flags>
0

> <s_epik_input>
W0NIM11bQ0hdKFtDSDNdKW4xW2NIXVtjSF1jKGMxMilbY0hdYyhbY0hdW2NIXTIpQyg9TylbTkhdW0NIMl1jM2MoQyhGKShGKUYpW2NIXWMoW2NIXVtjSF0zKVtOSF1TKD1PKSg9TylbQ0hdNFtDSDJdW0NIMl00

> <s_epik_cmdline>
J2VwaWtfcHl0aG9uJywgJy1waHQnLCAnMi4wJywgJy1waCcsICc3LjAnLCAnLXRuJywgJzgnLCAnLW1hJywgJzIwMCcsICctaW1hZScsICc8aW5maWxlLm1hZT4nLCAnLW9tYWUnLCAnPG91dGZpbGUubWFlPic=

> <r_epik_Ionization_Penalty>
  1.2618

> <r_epik_Ionization_Penalty_Charging>
  1.2618

> <r_epik_Ionization_Penalty_Neutral>
  0.0000

> <r_epik_State_Penalty>
  1.3325

> <r_epik_Charging_Adjusted_Penalty>
2.59425

> <i_epik_Tot_Q>
-1

> <i_epik_Tot_abs_Q>
1

> <s_lp_Force_Field>
OPLS3e

> <r_lp_Energy>
50.9005

> <b_lp_Chiralities_Consistent>
1

> <s_lp_Variant>
/home/yujie/leadopt/data/result/selection/sEH/lig_11d.sdf:1-2

> <s_i_glide_gridfile>
glide-grid_sEH

> <i_i_glide_lignum>
2

> <i_i_glide_rotatable_bonds>
9

> <r_i_docking_score>
-11.3756301567871

> <r_i_glide_ligand_efficiency>
-0.344716065357183

> <r_i_glide_ligand_efficiency_sa>
-1.10568861244557

> <r_i_glide_ligand_efficiency_ln>
-2.52988124700874

> <r_i_glide_gscore>
-12.7081001567871

> <r_i_glide_lipo>
-4.76411679776166

> <r_i_glide_hbond>
-0.72

> <r_i_glide_metal>
-0

> <r_i_glide_rewards>
-2.48989524735486

> <r_i_glide_evdw>
-53.4039344787598

> <r_i_glide_ecoul>
-16.5561695098877

> <r_i_glide_erotb>
0.619534038750608

> <r_i_glide_esite>
-0.2

> <r_i_glide_emodel>
-120.870252929221

> <r_i_glide_energy>
-69.9601039886475

> <r_i_glide_einternal>
8.12824440002441

> <i_i_glide_confnum>
138

> <i_i_glide_posenum>
351

> <r_i_glide_eff_state_penalty>
1.33247

$$$$
