@<TRIPOS>MOLECULE
/home/yujie/leadopt/data/result/selection/sEH/lig_11e.sdf:1
59   62    1
SMALL
USER_CHARGES


@<TRIPOS>ATOM
      1 O1         -1.3129  -15.3329   25.6683 O.2       1 UNK         0.0000 
      2 C2         -0.9470  -14.9168   26.7701 C.2       1 UNK         0.0000 
      3 C3          0.2110  -13.9490   26.9043 C.ar      1 UNK         0.0000 
      4 C4          1.2156  -13.9206   25.9297 C.ar      1 UNK         0.0000 
      5 C5          2.2912  -13.0313   25.9807 C.ar      1 UNK         0.0000 
      6 C6          2.3393  -12.1415   27.0627 C.ar      1 UNK         0.0000 
      7 N7          3.2663  -11.1670   27.4103 N.pl3     1 UNK         0.0000 
      8 C8          4.5142  -10.8682   26.7118 C.3       1 UNK         0.0000 
      9 C9          5.6020  -11.9427   26.9712 C.3       1 UNK         0.0000 
     10 C10         5.9333  -12.1329   28.4657 C.3       1 UNK         0.0000 
     11 C11         6.8780  -11.6291   26.1697 C.3       1 UNK         0.0000 
     12 C12         2.8625  -10.5641   28.5802 C.ar      1 UNK         0.0000 
     13 C13         1.6778  -11.1163   29.0091 C.ar      1 UNK         0.0000 
     14 C14         1.3291  -12.1340   28.0692 C.ar      1 UNK         0.0000 
     15 C15         0.2706  -13.0439   27.9751 C.ar      1 UNK         0.0000 
     16 N16        -1.6011  -15.2445   27.8972 N.am      1 UNK         0.0000 
     17 C17        -2.8472  -16.0099   27.9777 C.3       1 UNK         0.0000 
     18 C18        -2.7519  -17.5431   27.8842 C.ar      1 UNK         0.0000 
     19 C19        -3.8464  -18.3196   27.4465 C.ar      1 UNK         0.0000 
     20 C20        -5.1473  -17.6838   26.9375 C.3       1 UNK         0.0000 
     21 F21        -5.6766  -16.9330   27.8972 F         1 UNK         0.0000 
     22 F22        -4.9119  -16.9331   25.8605 F         1 UNK         0.0000 
     23 F23        -6.0657  -18.5828   26.5907 F         1 UNK         0.0000 
     24 C24        -3.7535  -19.7165   27.5028 C.ar      1 UNK         0.0000 
     25 C25        -2.6059  -20.3855   27.9332 C.ar      1 UNK         0.0000 
     26 N26        -2.7005  -21.7529   28.0082 N.2       1 UNK         0.0000 
     27 S27        -1.5340  -22.7995   27.9785 S.o2      1 UNK         0.0000 
     28 C28        -1.4519  -23.2413   26.1302 C.3       1 UNK         0.0000 
     29 C29        -0.6347  -24.4548   25.7659 C.3       1 UNK         0.0000 
     30 C30        -2.1461  -24.5109   25.6783 C.3       1 UNK         0.0000 
     31 O31        -0.2025  -22.2776   28.2973 O.2       1 UNK         0.0000 
     32 O32        -1.9087  -24.0329   28.6767 O.2       1 UNK         0.0000 
     33 C33        -1.5093  -19.5934   28.2975 C.ar      1 UNK         0.0000 
     34 C34        -1.5800  -18.1996   28.2808 C.ar      1 UNK         0.0000 
     35 H35         1.1721  -14.6096   25.0979 H         1 UNK         0.0000 
     36 H36         3.0523  -13.0386   25.2161 H         1 UNK         0.0000 
     37 H37         4.8600   -9.8801   27.0208 H         1 UNK         0.0000 
     38 H38         4.2847  -10.7972   25.6471 H         1 UNK         0.0000 
     39 H39         5.2231  -12.8971   26.6006 H         1 UNK         0.0000 
     40 H40         6.2647  -11.2017   28.9265 H         1 UNK         0.0000 
     41 H41         6.7260  -12.8692   28.6020 H         1 UNK         0.0000 
     42 H42         5.0693  -12.4915   29.0267 H         1 UNK         0.0000 
     43 H43         7.3314  -10.6902   26.4893 H         1 UNK         0.0000 
     44 H44         7.6241  -12.4149   26.2909 H         1 UNK         0.0000 
     45 H45         6.6661  -11.5498   25.1026 H         1 UNK         0.0000 
     46 H46         3.4707   -9.7850   29.0183 H         1 UNK         0.0000 
     47 H47         1.1335  -10.8357   29.8972 H         1 UNK         0.0000 
     48 H48        -0.5047  -13.0244   28.7263 H         1 UNK         0.0000 
     49 H49        -1.2384  -14.9327   28.8012 H         1 UNK         0.0000 
     50 H50        -3.3024  -15.7769   28.9415 H         1 UNK         0.0000 
     51 H51        -3.5209  -15.6129   27.2238 H         1 UNK         0.0000 
     52 H52        -4.6043  -20.3160   27.2062 H         1 UNK         0.0000 
     53 H53        -1.4223  -22.3550   25.4981 H         1 UNK         0.0000 
     54 H54        -0.0433  -24.4255   24.8506 H         1 UNK         0.0000 
     55 H55        -0.1293  -24.9796   26.5741 H         1 UNK         0.0000 
     56 H56        -2.6963  -25.1003   26.4126 H         1 UNK         0.0000 
     57 H57        -2.6233  -24.5331   24.6989 H         1 UNK         0.0000 
     58 H58        -0.5969  -20.0313   28.6665 H         1 UNK         0.0000 
     59 H59        -0.7232  -17.6339   28.6205 H         1 UNK         0.0000 
@<TRIPOS>BOND
     1    1    2 2    
     2    2    3 1    
     3    2   16 am   BACKBONE|DICT|INTERRES
     4    3   15 ar   
     5    3    4 ar   
     6    4    5 ar   
     7    4   35 1    
     8    5    6 ar   
     9    5   36 1    
    10    6    7 ar   
    11    6   14 ar   
    12    7    8 1    
    13    7   12 ar   
    14    8    9 1    
    15    8   37 1    
    16    8   38 1    
    17    9   10 1    
    18    9   11 1    
    19    9   39 1    
    20   10   40 1    
    21   10   41 1    
    22   10   42 1    
    23   11   43 1    
    24   11   44 1    
    25   11   45 1    
    26   12   13 ar   
    27   12   46 1    
    28   13   14 ar   
    29   13   47 1    
    30   14   15 ar   
    31   15   48 1    
    32   16   17 1    
    33   16   49 1    
    34   17   18 1    
    35   17   50 1    
    36   17   51 1    
    37   18   34 ar   
    38   18   19 ar   
    39   19   20 1    
    40   19   24 ar   
    41   20   21 1    
    42   20   22 1    
    43   20   23 1    
    44   24   25 ar   
    45   24   52 1    
    46   25   26 1    
    47   25   33 ar   
    48   26   27 1    
    49   27   28 1    
    50   27   31 2    
    51   27   32 2    
    52   28   30 1    
    53   28   29 1    
    54   28   53 1    
    55   29   30 1    
    56   29   54 1    
    57   29   55 1    
    58   30   56 1    
    59   30   57 1    
    60   33   34 ar   
    61   33   58 1    
    62   34   59 1    
@<TRIPOS>SUBSTRUCTURE
     1 UNK         1 GROUP             0       ****    0 ROOT    
