/home/yujie/leadopt/data/result/selection/sEH/lig_6c.sdf:1
                    3D
 Schrodinger Suite 2020-3.
 48 51  0  0  1  0            999 V2000
   -1.7429  -13.5877   27.4972 O   0  0  0  0  0  0
   -0.9272  -14.4313   27.1635 C   0  0  0  0  0  0
    0.3526  -14.0163   26.4850 C   0  0  0  0  0  0
    1.4741  -14.8409   26.5330 C   0  0  0  0  0  0
    2.6706  -14.4999   25.8971 C   0  0  0  0  0  0
    2.7784  -13.2403   25.3304 C   0  0  0  0  0  0
    3.8274  -12.5765   24.7238 N   0  0  0  0  0  0
    5.2373  -12.9801   24.6929 C   0  0  0  0  0  0
    6.0589  -12.4024   25.8400 C   0  0  0  0  0  0
    5.5608  -12.5738   27.0947 N   0  0  0  0  0  0
    6.2190  -11.9891   28.1259 C   0  0  0  0  0  0
    7.3730  -11.2242   27.9542 C   0  0  0  0  0  0
    7.8720  -11.0596   26.6606 C   0  0  0  0  0  0
    7.2142  -11.6586   25.5844 C   0  0  0  0  0  0
    3.4415  -11.3332   24.3414 C   0  0  0  0  0  0
    2.1439  -11.2633   24.6973 N   0  0  0  0  0  0
    4.1127  -10.4442   23.8193 O   0  0  0  0  0  0
    1.7016  -12.4079   25.2965 C   0  0  0  0  0  0
    0.4699  -12.7783   25.8368 C   0  0  0  0  0  0
   -1.1307  -15.7477   27.3522 N   0  0  0  0  0  0
   -2.2782  -16.3065   28.0711 C   0  0  0  0  0  0
   -2.4175  -17.8236   27.9227 C   0  0  0  0  0  0
   -3.6024  -18.4535   27.4787 C   0  0  0  0  0  0
   -4.8047  -17.6536   26.9622 C   0  0  0  0  0  0
   -4.4213  -16.8384   25.9784 F   0  0  0  0  0  0
   -5.7666  -18.4380   26.4748 F   0  0  0  0  0  0
   -5.3288  -16.9341   27.9525 F   0  0  0  0  0  0
   -3.6721  -19.8561   27.4970 C   0  0  0  0  0  0
   -2.5831  -20.6255   27.8986 C   0  0  0  0  0  0
   -1.4064  -20.0029   28.2981 C   0  0  0  0  0  0
   -1.3293  -18.6134   28.3147 C   0  0  0  0  0  0
    1.4309  -15.7329   27.1252 H   0  0  0  0  0  0
    3.5118  -15.1770   25.8972 H   0  0  0  0  0  0
    5.2990  -14.0670   24.7432 H   0  0  0  0  0  0
    5.6763  -12.6913   23.7363 H   0  0  0  0  0  0
    5.7909  -12.1342   29.1041 H   0  0  0  0  0  0
    7.8640  -10.7662   28.8015 H   0  0  0  0  0  0
    8.7584  -10.4661   26.4919 H   0  0  0  0  0  0
    7.5765  -11.5192   24.5764 H   0  0  0  0  0  0
    1.5950  -10.4250   24.5882 H   0  0  0  0  0  0
   -0.3815  -12.1255   25.7857 H   0  0  0  0  0  0
   -0.3425  -16.3633   27.2389 H   0  0  0  0  0  0
   -3.1900  -15.7613   27.8282 H   0  0  0  0  0  0
   -2.1251  -16.1298   29.1356 H   0  0  0  0  0  0
   -4.5682  -20.3682   27.1767 H   0  0  0  0  0  0
   -2.6509  -21.7039   27.8942 H   0  0  0  0  0  0
   -0.5566  -20.5915   28.6156 H   0  0  0  0  0  0
   -0.4201  -18.1484   28.6694 H   0  0  0  0  0  0
  1  2  2  0  0  0
  2  3  1  0  0  0
  2 20  1  0  0  0
  3 19  1  0  0  0
  3  4  2  0  0  0
  4  5  1  0  0  0
  4 32  1  0  0  0
  5  6  2  0  0  0
  5 33  1  0  0  0
  6  7  1  0  0  0
  6 18  1  0  0  0
  7  8  1  0  0  0
  7 15  1  0  0  0
  8  9  1  0  0  0
  8 34  1  0  0  0
  8 35  1  0  0  0
  9 14  1  0  0  0
  9 10  2  0  0  0
 10 11  1  0  0  0
 11 12  2  0  0  0
 11 36  1  0  0  0
 12 13  1  0  0  0
 12 37  1  0  0  0
 13 14  2  0  0  0
 13 38  1  0  0  0
 14 39  1  0  0  0
 15 16  1  0  0  0
 15 17  2  0  0  0
 16 18  1  0  0  0
 16 40  1  0  0  0
 18 19  2  0  0  0
 19 41  1  0  0  0
 20 21  1  0  0  0
 20 42  1  0  0  0
 21 22  1  0  0  0
 21 43  1  0  0  0
 21 44  1  0  0  0
 22 31  1  0  0  0
 22 23  2  0  0  0
 23 24  1  0  0  0
 23 28  1  0  0  0
 24 25  1  0  0  0
 24 26  1  0  0  0
 24 27  1  0  0  0
 28 29  2  0  0  0
 28 45  1  0  0  0
 29 30  1  0  0  0
 29 46  1  0  0  0
 30 31  2  0  0  0
 30 47  1  0  0  0
 31 48  1  0  0  0
M  END
> <s_m_source_file>
/home/yujie/leadopt/data/result/selection/sEH/lig_6c.sdf

> <i_m_source_file_index>
1

> <i_lp_mmshare_version>
51139

> <i_f3d_flags>
0

> <s_epik_input>
W2NIXTFbY0hdW2NIXVtjSF1jKEMoRikoRilGKWMxW0NIMl1bTkhdQyg9TyljKFtjSF1bY0hdMilbY0hdYyhjMjMpW25IXWMoPU8pbjNbQ0gyXWM0bltjSF1bY0hdW2NIXVtjSF00

> <s_epik_cmdline>
J2VwaWtfcHl0aG9uJywgJy1waHQnLCAnMi4wJywgJy1waCcsICc3LjAnLCAnLXRuJywgJzgnLCAnLW1hJywgJzIwMCcsICctaW1hZScsICc8aW5maWxlLm1hZT4nLCAnLW9tYWUnLCAnPG91dGZpbGUubWFlPic=

> <r_lp_tautomer_probability>
1

> <r_epik_Ionization_Penalty>
  0.0002

> <r_epik_Ionization_Penalty_Charging>
  0.0000

> <r_epik_Ionization_Penalty_Neutral>
  0.0002

> <r_epik_State_Penalty>
 -0.0000

> <r_epik_Charging_Adjusted_Penalty>
1.70548e-05

> <i_epik_Tot_Q>
0

> <i_epik_Tot_abs_Q>
0

> <s_lp_Force_Field>
OPLS3e

> <r_lp_Energy>
32.847

> <b_lp_Chiralities_Consistent>
1

> <s_lp_Variant>
/home/yujie/leadopt/data/result/selection/sEH/lig_6c.sdf:1-1

> <s_i_glide_gridfile>
glide-grid_sEH

> <i_i_glide_lignum>
1

> <i_i_glide_rotatable_bonds>
7

> <r_i_docking_score>
-7.92575306045636

> <r_i_glide_ligand_efficiency>
-0.255669453563108

> <r_i_glide_ligand_efficiency_sa>
-0.803155073911287

> <r_i_glide_ligand_efficiency_ln>
-1.78750021029361

> <r_i_glide_gscore>
-7.92575306045636

> <r_i_glide_lipo>
-3.99513079020435

> <r_i_glide_hbond>
-0.00197831468030014

> <r_i_glide_metal>
-0

> <r_i_glide_rewards>
-2.50505648392055

> <r_i_glide_evdw>
-39.962718963623

> <r_i_glide_ecoul>
0.803971946239471

> <r_i_glide_erotb>
0.654938471218434

> <r_i_glide_esite>
-0.200985786624367

> <r_i_glide_emodel>
-59.8815295378924

> <r_i_glide_energy>
-39.1587470173836

> <r_i_glide_einternal>
6.37077808380127

> <i_i_glide_confnum>
2

> <i_i_glide_posenum>
346

> <r_i_glide_eff_state_penalty>
-0

$$$$
