@<TRIPOS>MOLECULE
/home/yujie/leadopt/data/result/selection/sEH/lig_7g.sdf:1
49   52    1
SMALL
USER_CHARGES


@<TRIPOS>ATOM
      1 O1         -1.3282  -15.3325   25.6977 O.2       1 UNK         0.0000 
      2 C2         -1.0084  -14.8054   26.7649 C.2       1 UNK         0.0000 
      3 C3          0.0851  -13.7578   26.8127 C.ar      1 UNK         0.0000 
      4 C4          0.8077  -13.4677   25.6469 C.ar      1 UNK         0.0000 
      5 C5          1.7564  -12.4499   25.5777 C.ar      1 UNK         0.0000 
      6 C6          1.9679  -11.6963   26.7375 C.ar      1 UNK         0.0000 
      7 N7          2.7794  -10.5965   26.9759 N.pl3     1 UNK         0.0000 
      8 C8          3.7076   -9.9884   26.0301 C.3       1 UNK         0.0000 
      9 C9          5.0611  -10.6854   26.0139 C.ar      1 UNK         0.0000 
     10 C10         5.8758  -10.6596   27.1513 C.ar      1 UNK         0.0000 
     11 C11         7.0993  -11.3247   27.1573 C.ar      1 UNK         0.0000 
     12 F12         7.8668  -11.3056   28.2684 F         1 UNK         0.0000 
     13 C13         7.5265  -12.0092   26.0212 C.ar      1 UNK         0.0000 
     14 C14         6.7243  -12.0328   24.8796 C.ar      1 UNK         0.0000 
     15 C15         5.4937  -11.3737   24.8757 C.ar      1 UNK         0.0000 
     16 C16         2.6589  -10.2333   28.2971 C.ar      1 UNK         0.0000 
     17 C17         1.7577  -11.0546   28.9343 C.ar      1 UNK         0.0000 
     18 C18         1.2852  -11.9848   27.9567 C.ar      1 UNK         0.0000 
     19 C19         0.3526  -13.0286   27.9829 C.ar      1 UNK         0.0000 
     20 N20        -1.6850  -15.0611   27.8966 N.am      1 UNK         0.0000 
     21 C21        -2.8552  -15.9367   28.0071 C.3       1 UNK         0.0000 
     22 C22        -2.5746  -17.4458   28.0730 C.ar      1 UNK         0.0000 
     23 C23        -3.5343  -18.3957   27.6494 C.ar      1 UNK         0.0000 
     24 C24        -4.8934  -17.9763   27.0683 C.3       1 UNK         0.0000 
     25 F25        -4.7195  -17.3698   25.8933 F         1 UNK         0.0000 
     26 F26        -5.7087  -19.0130   26.8717 F         1 UNK         0.0000 
     27 F27        -5.5118  -17.1389   27.8972 F         1 UNK         0.0000 
     28 C28        -3.2410  -19.7626   27.7763 C.ar      1 UNK         0.0000 
     29 C29        -2.0229  -20.1900   28.2973 C.ar      1 UNK         0.0000 
     30 C30        -1.0745  -19.2556   28.6970 C.ar      1 UNK         0.0000 
     31 C31        -1.3433  -17.8952   28.5744 C.ar      1 UNK         0.0000 
     32 H32         0.6195  -14.0299   24.7421 H         1 UNK         0.0000 
     33 H33         2.2750  -12.2404   24.6536 H         1 UNK         0.0000 
     34 H34         3.2478  -10.0035   25.0405 H         1 UNK         0.0000 
     35 H35         3.8271   -8.9333   26.2804 H         1 UNK         0.0000 
     36 H36         5.5613  -10.1345   28.0409 H         1 UNK         0.0000 
     37 H37         8.4771  -12.5208   26.0298 H         1 UNK         0.0000 
     38 H38         7.0540  -12.5640   23.9993 H         1 UNK         0.0000 
     39 H39         4.8775  -11.4054   23.9888 H         1 UNK         0.0000 
     40 H40         3.2416   -9.4087   28.6809 H         1 UNK         0.0000 
     41 H41         1.4704  -10.9877   29.9724 H         1 UNK         0.0000 
     42 H42        -0.1735  -13.2275   28.9042 H         1 UNK         0.0000 
     43 H43        -1.3297  -14.7214   28.7939 H         1 UNK         0.0000 
     44 H44        -3.5222  -15.7116   27.1766 H         1 UNK         0.0000 
     45 H45        -3.3884  -15.6574   28.9178 H         1 UNK         0.0000 
     46 H46        -3.9553  -20.5116   27.4658 H         1 UNK         0.0000 
     47 H47        -1.8120  -21.2455   28.3879 H         1 UNK         0.0000 
     48 H48        -0.1307  -19.5873   29.1057 H         1 UNK         0.0000 
     49 H49        -0.5950  -17.1890   28.9060 H         1 UNK         0.0000 
@<TRIPOS>BOND
     1    1    2 2    
     2    2    3 1    
     3    2   20 am   BACKBONE|DICT|INTERRES
     4    3   19 ar   
     5    3    4 ar   
     6    4    5 ar   
     7    4   32 1    
     8    5    6 ar   
     9    5   33 1    
    10    6    7 ar   
    11    6   18 ar   
    12    7    8 1    
    13    7   16 ar   
    14    8    9 1    
    15    8   34 1    
    16    8   35 1    
    17    9   15 ar   
    18    9   10 ar   
    19   10   11 ar   
    20   10   36 1    
    21   11   12 1    
    22   11   13 ar   
    23   13   14 ar   
    24   13   37 1    
    25   14   15 ar   
    26   14   38 1    
    27   15   39 1    
    28   16   17 ar   
    29   16   40 1    
    30   17   18 ar   
    31   17   41 1    
    32   18   19 ar   
    33   19   42 1    
    34   20   21 1    
    35   20   43 1    
    36   21   22 1    
    37   21   44 1    
    38   21   45 1    
    39   22   31 ar   
    40   22   23 ar   
    41   23   24 1    
    42   23   28 ar   
    43   24   25 1    
    44   24   26 1    
    45   24   27 1    
    46   28   29 ar   
    47   28   46 1    
    48   29   30 ar   
    49   29   47 1    
    50   30   31 ar   
    51   30   48 1    
    52   31   49 1    
@<TRIPOS>SUBSTRUCTURE
     1 UNK         1 GROUP             0       ****    0 ROOT    
