@<TRIPOS>MOLECULE
/home/yujie/leadopt/data/result/selection/sEH/lig_6c.sdf:1
48   51    1
SMALL
USER_CHARGES


@<TRIPOS>ATOM
      1 O1         -1.7429  -13.5877   27.4972 O.2       1 UNK         0.0000 
      2 C2         -0.9272  -14.4313   27.1635 C.2       1 UNK         0.0000 
      3 C3          0.3526  -14.0163   26.4850 C.ar      1 UNK         0.0000 
      4 C4          1.4741  -14.8409   26.5330 C.ar      1 UNK         0.0000 
      5 C5          2.6706  -14.4999   25.8971 C.ar      1 UNK         0.0000 
      6 C6          2.7784  -13.2403   25.3304 C.ar      1 UNK         0.0000 
      7 N7          3.8274  -12.5765   24.7238 N.pl3     1 UNK         0.0000 
      8 C8          5.2373  -12.9801   24.6929 C.3       1 UNK         0.0000 
      9 C9          6.0589  -12.4024   25.8400 C.ar      1 UNK         0.0000 
     10 N10         5.5608  -12.5738   27.0947 N.ar      1 UNK         0.0000 
     11 C11         6.2190  -11.9891   28.1259 C.ar      1 UNK         0.0000 
     12 C12         7.3730  -11.2242   27.9542 C.ar      1 UNK         0.0000 
     13 C13         7.8720  -11.0596   26.6606 C.ar      1 UNK         0.0000 
     14 C14         7.2142  -11.6586   25.5844 C.ar      1 UNK         0.0000 
     15 C15         3.4415  -11.3332   24.3414 C.ar      1 UNK         0.0000 
     16 N16         2.1439  -11.2633   24.6973 N.pl3     1 UNK         0.0000 
     17 O17         4.1127  -10.4442   23.8193 O.2       1 UNK         0.0000 
     18 C18         1.7016  -12.4079   25.2965 C.ar      1 UNK         0.0000 
     19 C19         0.4699  -12.7783   25.8368 C.ar      1 UNK         0.0000 
     20 N20        -1.1307  -15.7477   27.3522 N.am      1 UNK         0.0000 
     21 C21        -2.2782  -16.3065   28.0711 C.3       1 UNK         0.0000 
     22 C22        -2.4175  -17.8236   27.9227 C.ar      1 UNK         0.0000 
     23 C23        -3.6024  -18.4535   27.4787 C.ar      1 UNK         0.0000 
     24 C24        -4.8047  -17.6536   26.9622 C.3       1 UNK         0.0000 
     25 F25        -4.4213  -16.8384   25.9784 F         1 UNK         0.0000 
     26 F26        -5.7666  -18.4380   26.4748 F         1 UNK         0.0000 
     27 F27        -5.3288  -16.9341   27.9525 F         1 UNK         0.0000 
     28 C28        -3.6721  -19.8561   27.4970 C.ar      1 UNK         0.0000 
     29 C29        -2.5831  -20.6255   27.8986 C.ar      1 UNK         0.0000 
     30 C30        -1.4064  -20.0029   28.2981 C.ar      1 UNK         0.0000 
     31 C31        -1.3293  -18.6134   28.3147 C.ar      1 UNK         0.0000 
     32 H32         1.4309  -15.7329   27.1252 H         1 UNK         0.0000 
     33 H33         3.5118  -15.1770   25.8972 H         1 UNK         0.0000 
     34 H34         5.2990  -14.0670   24.7432 H         1 UNK         0.0000 
     35 H35         5.6763  -12.6913   23.7363 H         1 UNK         0.0000 
     36 H36         5.7909  -12.1342   29.1041 H         1 UNK         0.0000 
     37 H37         7.8640  -10.7662   28.8015 H         1 UNK         0.0000 
     38 H38         8.7584  -10.4661   26.4919 H         1 UNK         0.0000 
     39 H39         7.5765  -11.5192   24.5764 H         1 UNK         0.0000 
     40 H40         1.5950  -10.4250   24.5882 H         1 UNK         0.0000 
     41 H41        -0.3815  -12.1255   25.7857 H         1 UNK         0.0000 
     42 H42        -0.3425  -16.3633   27.2389 H         1 UNK         0.0000 
     43 H43        -3.1900  -15.7613   27.8282 H         1 UNK         0.0000 
     44 H44        -2.1251  -16.1298   29.1356 H         1 UNK         0.0000 
     45 H45        -4.5682  -20.3682   27.1767 H         1 UNK         0.0000 
     46 H46        -2.6509  -21.7039   27.8942 H         1 UNK         0.0000 
     47 H47        -0.5566  -20.5915   28.6156 H         1 UNK         0.0000 
     48 H48        -0.4201  -18.1484   28.6694 H         1 UNK         0.0000 
@<TRIPOS>BOND
     1    1    2 2    
     2    2    3 1    
     3    2   20 am   BACKBONE|DICT|INTERRES
     4    3   19 ar   
     5    3    4 ar   
     6    4    5 ar   
     7    4   32 1    
     8    5    6 ar   
     9    5   33 1    
    10    6    7 ar   
    11    6   18 ar   
    12    7    8 1    
    13    7   15 ar   
    14    8    9 1    
    15    8   34 1    
    16    8   35 1    
    17    9   14 ar   
    18    9   10 ar   
    19   10   11 ar   
    20   11   12 ar   
    21   11   36 1    
    22   12   13 ar   
    23   12   37 1    
    24   13   14 ar   
    25   13   38 1    
    26   14   39 1    
    27   15   16 ar   
    28   15   17 2    
    29   16   18 ar   
    30   16   40 1    
    31   18   19 ar   
    32   19   41 1    
    33   20   21 1    
    34   20   42 1    
    35   21   22 1    
    36   21   43 1    
    37   21   44 1    
    38   22   31 ar   
    39   22   23 ar   
    40   23   24 1    
    41   23   28 ar   
    42   24   25 1    
    43   24   26 1    
    44   24   27 1    
    45   28   29 ar   
    46   28   45 1    
    47   29   30 ar   
    48   29   46 1    
    49   30   31 ar   
    50   30   47 1    
    51   31   48 1    
@<TRIPOS>SUBSTRUCTURE
     1 UNK         1 GROUP             0       ****    0 ROOT    
