/home/yujie/leadopt/data/result/selection/sEH/lig_11m.sdf:1
                    3D
 Schrodinger Suite 2020-3.
 60 64  0  0  1  0            999 V2000
   -1.3290  -15.3329   25.6693 O   0  0  0  0  0  0
   -0.9814  -14.9317   26.7807 C   0  0  0  0  0  0
    0.2423  -14.0664   26.9254 C   0  0  0  0  0  0
    1.3524  -14.3299   26.1193 C   0  0  0  0  0  0
    2.5212  -13.5815   26.1855 C   0  0  0  0  0  0
    2.5554  -12.5233   27.0971 C   0  0  0  0  0  0
    3.5863  -11.6725   27.4645 N   0  0  0  0  0  0
    5.1907  -11.6629   26.8374 S   0  0  0  0  0  0
    5.0519  -10.9391   25.2090 C   0  0  0  0  0  0
    5.1893   -9.5592   25.0466 C   0  0  0  0  0  0
    5.0709   -8.9863   23.7827 C   0  0  0  0  0  0
    5.2038   -7.6489   23.6313 F   0  0  0  0  0  0
    4.8029   -9.7943   22.6782 C   0  0  0  0  0  0
    4.6720  -11.1737   22.8311 C   0  0  0  0  0  0
    4.8069  -11.7476   24.0941 C   0  0  0  0  0  0
    5.5699  -13.0709   26.6733 O   0  0  0  0  0  0
    5.9631  -10.7495   27.6878 O   0  0  0  0  0  0
    3.0841  -10.7141   28.3162 C   0  0  0  0  0  0
    1.7840  -11.0251   28.6541 C   0  0  0  0  0  0
    1.4244  -12.1895   27.9035 C   0  0  0  0  0  0
    0.2711  -12.9881   27.8228 C   0  0  0  0  0  0
   -1.6721  -15.2068   27.8972 N   0  0  0  0  0  0
   -2.9155  -15.9769   27.9572 C   0  0  0  0  0  0
   -2.8008  -17.5099   27.8876 C   0  0  0  0  0  0
   -3.8847  -18.3037   27.4577 C   0  0  0  0  0  0
   -5.1920  -17.6864   26.9412 C   0  0  0  0  0  0
   -6.1006  -18.5975   26.6006 F   0  0  0  0  0  0
   -5.7280  -16.9329   27.8969 F   0  0  0  0  0  0
   -4.9660  -16.9373   25.8603 F   0  0  0  0  0  0
   -3.7778  -19.6987   27.5398 C   0  0  0  0  0  0
   -2.6297  -20.3480   28.0006 C   0  0  0  0  0  0
   -2.7274  -21.7110   28.1352 N   0  5  0  0  0  0
   -1.5737  -22.7630   28.2973 S   0  0  0  0  0  0
   -1.4433  -23.4661   26.5412 C   0  0  0  0  0  0
   -1.1091  -24.9323   26.3921 C   0  0  0  0  0  0
   -2.5149  -24.4411   26.1074 C   0  0  0  0  0  0
   -0.2403  -22.2187   28.5638 O   0  0  0  0  0  0
   -1.9904  -23.8755   29.1574 O   0  0  0  0  0  0
   -1.5370  -19.5389   28.3381 C   0  0  0  0  0  0
   -1.6220  -18.1471   28.2944 C   0  0  0  0  0  0
    1.3358  -15.1678   25.4372 H   0  0  0  0  0  0
    3.3778  -13.8561   25.5932 H   0  0  0  0  0  0
    5.3915   -8.9327   25.8973 H   0  0  0  0  0  0
    4.6730   -9.3461   21.7037 H   0  0  0  0  0  0
    4.4590  -11.7942   21.9720 H   0  0  0  0  0  0
    4.7214  -12.8180   24.1988 H   0  0  0  0  0  0
    3.7250   -9.9147   28.6653 H   0  0  0  0  0  0
    1.1671  -10.4812   29.3531 H   0  0  0  0  0  0
   -0.5868  -12.7573   28.4411 H   0  0  0  0  0  0
   -1.3011  -14.9312   28.8096 H   0  0  0  0  0  0
   -3.3982  -15.7313   28.9049 H   0  0  0  0  0  0
   -3.5721  -15.5984   27.1785 H   0  0  0  0  0  0
   -4.6232  -20.3104   27.2579 H   0  0  0  0  0  0
   -1.0517  -22.7272   25.8461 H   0  0  0  0  0  0
   -0.4708  -25.2368   25.5623 H   0  0  0  0  0  0
   -0.9291  -25.5222   27.2917 H   0  0  0  0  0  0
   -3.3150  -24.6779   26.8098 H   0  0  0  0  0  0
   -2.8707  -24.3980   25.0782 H   0  0  0  0  0  0
   -0.6191  -19.9571   28.7156 H   0  0  0  0  0  0
   -0.7707  -17.5686   28.6235 H   0  0  0  0  0  0
  1  2  2  0  0  0
  2  3  1  0  0  0
  2 22  1  0  0  0
  3 21  1  0  0  0
  3  4  2  0  0  0
  4  5  1  0  0  0
  4 41  1  0  0  0
  5  6  2  0  0  0
  5 42  1  0  0  0
  6  7  1  0  0  0
  6 20  1  0  0  0
  7  8  1  0  0  0
  7 18  1  0  0  0
  8  9  1  0  0  0
  8 16  2  0  0  0
  8 17  2  0  0  0
  9 15  1  0  0  0
  9 10  2  0  0  0
 10 11  1  0  0  0
 10 43  1  0  0  0
 11 12  1  0  0  0
 11 13  2  0  0  0
 13 14  1  0  0  0
 13 44  1  0  0  0
 14 15  2  0  0  0
 14 45  1  0  0  0
 15 46  1  0  0  0
 18 19  2  0  0  0
 18 47  1  0  0  0
 19 20  1  0  0  0
 19 48  1  0  0  0
 20 21  2  0  0  0
 21 49  1  0  0  0
 22 23  1  0  0  0
 22 50  1  0  0  0
 23 24  1  0  0  0
 23 51  1  0  0  0
 23 52  1  0  0  0
 24 40  1  0  0  0
 24 25  2  0  0  0
 25 26  1  0  0  0
 25 30  1  0  0  0
 26 27  1  0  0  0
 26 28  1  0  0  0
 26 29  1  0  0  0
 30 31  2  0  0  0
 30 53  1  0  0  0
 31 32  1  0  0  0
 31 39  1  0  0  0
 32 33  1  0  0  0
 33 34  1  0  0  0
 33 37  2  0  0  0
 33 38  2  0  0  0
 34 36  1  0  0  0
 34 35  1  0  0  0
 34 54  1  0  0  0
 35 36  1  0  0  0
 35 55  1  0  0  0
 35 56  1  0  0  0
 36 57  1  0  0  0
 36 58  1  0  0  0
 39 40  2  0  0  0
 39 59  1  0  0  0
 40 60  1  0  0  0
M  CHG  1  32  -1
M  END
> <s_m_source_file>
/home/yujie/leadopt/data/result/selection/sEH/lig_11m.sdf

> <i_m_source_file_index>
1

> <i_lp_mmshare_version>
51139

> <i_f3d_flags>
0

> <s_epik_input>
W0NIMl0xW0NIMl1bQ0hdMVMoPU8pKD1PKVtOSF1jKFtjSF1bY0hdMilbY0hdYyhDKEYpKEYpRiljMltDSDJdW05IXUMoPU8pYyhbY0hdW2NIXTMpW2NIXWMoYzM0KVtjSF1bY0hdbjRTKD1PKSg9TyljNVtjSF1jKEYpW2NIXVtjSF1bY0hdNQ==

> <s_epik_cmdline>
J2VwaWtfcHl0aG9uJywgJy1waHQnLCAnMi4wJywgJy1waCcsICc3LjAnLCAnLXRuJywgJzgnLCAnLW1hJywgJzIwMCcsICctaW1hZScsICc8aW5maWxlLm1hZT4nLCAnLW9tYWUnLCAnPG91dGZpbGUubWFlPic=

> <r_epik_Ionization_Penalty>
  1.2618

> <r_epik_Ionization_Penalty_Charging>
  1.2618

> <r_epik_Ionization_Penalty_Neutral>
  0.0000

> <r_epik_State_Penalty>
  1.3325

> <r_epik_Charging_Adjusted_Penalty>
2.59425

> <i_epik_Tot_Q>
-1

> <i_epik_Tot_abs_Q>
1

> <s_lp_Force_Field>
OPLS3e

> <r_lp_Energy>
55.3392

> <b_lp_Chiralities_Consistent>
1

> <s_lp_Variant>
/home/yujie/leadopt/data/result/selection/sEH/lig_11m.sdf:1-2

> <s_i_glide_gridfile>
glide-grid_sEH

> <i_i_glide_lignum>
2

> <i_i_glide_rotatable_bonds>
10

> <r_i_docking_score>
-11.8535211535867

> <r_i_glide_ligand_efficiency>
-0.296338028839668

> <r_i_glide_ligand_efficiency_sa>
-1.01346180155666

> <r_i_glide_ligand_efficiency_ln>
-2.5280072285046

> <r_i_glide_gscore>
-13.1859911535867

> <r_i_glide_lipo>
-4.53437708989599

> <r_i_glide_hbond>
-0.72

> <r_i_glide_metal>
-0

> <r_i_glide_rewards>
-2.69999886191834

> <r_i_glide_evdw>
-63.1096038818359

> <r_i_glide_ecoul>
-15.3189163208008

> <r_i_glide_erotb>
0.421702440439532

> <r_i_glide_esite>
-0.2

> <r_i_glide_emodel>
-137.197602216795

> <r_i_glide_energy>
-78.4285202026367

> <r_i_glide_einternal>
8.74340438842773

> <i_i_glide_confnum>
43

> <i_i_glide_posenum>
66

> <r_i_glide_eff_state_penalty>
1.33247

$$$$
