@<TRIPOS>MOLECULE
/home/yujie/leadopt/data/result/selection/sEH/lig_6k.sdf:1
49   52    1
SMALL
USER_CHARGES


@<TRIPOS>ATOM
      1 O1         -1.7292  -15.8167   25.8813 O.2       1 UNK         0.0000 
      2 C2         -1.3289  -15.2084   26.8670 C.2       1 UNK         0.0000 
      3 C3         -0.2519  -14.1590   26.7360 C.ar      1 UNK         0.0000 
      4 C4          0.4019  -13.9515   25.5019 C.ar      1 UNK         0.0000 
      5 C5          1.3612  -12.9482   25.3458 C.ar      1 UNK         0.0000 
      6 C6          1.6670  -12.1592   26.4479 C.ar      1 UNK         0.0000 
      7 N7          2.5047  -11.0836   26.6171 N.pl3     1 UNK         0.0000 
      8 C8          3.3925  -10.4831   25.6152 C.3       1 UNK         0.0000 
      9 C9          4.7655  -11.1339   25.4798 C.ar      1 UNK         0.0000 
     10 C10         5.5084  -11.5070   26.6070 C.ar      1 UNK         0.0000 
     11 C11         6.7735  -12.0764   26.4689 C.ar      1 UNK         0.0000 
     12 Cl12        7.6384  -12.5287   27.8957 Cl        1 UNK         0.0000 
     13 C13         7.3144  -12.2666   25.1907 C.ar      1 UNK         0.0000 
     14 Cl14        8.8952  -12.9325   24.9724 Cl        1 UNK         0.0000 
     15 C15         6.5736  -11.9035   24.0648 C.ar      1 UNK         0.0000 
     16 C16         5.3045  -11.3426   24.2074 C.ar      1 UNK         0.0000 
     17 C17         2.4422  -10.6413   27.8977 C.ar      1 UNK         0.0000 
     18 N18         1.5374  -11.4202   28.5095 N.pl3     1 UNK         0.0000 
     19 O19         3.0711   -9.7329   28.4085 O.2       1 UNK         0.0000 
     20 C20         1.0502  -12.3575   27.6486 C.ar      1 UNK         0.0000 
     21 C21         0.0856  -13.3330   27.8197 C.ar      1 UNK         0.0000 
     22 N22        -1.8635  -15.3984   28.0789 N.am      1 UNK         0.0000 
     23 C23        -2.9922  -16.2637   28.3920 C.3       1 UNK         0.0000 
     24 C24        -2.7635  -17.7642   28.1613 C.ar      1 UNK         0.0000 
     25 C25        -3.7405  -18.5858   27.5618 C.ar      1 UNK         0.0000 
     26 C26        -5.0195  -17.9981   26.9555 C.3       1 UNK         0.0000 
     27 F27        -4.7145  -17.1225   25.9959 F         1 UNK         0.0000 
     28 F28        -5.7859  -18.9342   26.4012 F         1 UNK         0.0000 
     29 F29        -5.7304  -17.3801   27.8970 F         1 UNK         0.0000 
     30 C30        -3.5172  -19.9701   27.4968 C.ar      1 UNK         0.0000 
     31 C31        -2.3188  -20.5259   27.9351 C.ar      1 UNK         0.0000 
     32 C32        -1.3293  -19.7044   28.4622 C.ar      1 UNK         0.0000 
     33 C33        -1.5514  -18.3340   28.5755 C.ar      1 UNK         0.0000 
     34 H34         0.1517  -14.5329   24.6299 H         1 UNK         0.0000 
     35 H35         1.8314  -12.7904   24.3859 H         1 UNK         0.0000 
     36 H36         2.8830  -10.5249   24.6517 H         1 UNK         0.0000 
     37 H37         3.5316   -9.4219   25.8294 H         1 UNK         0.0000 
     38 H38         5.1167  -11.3479   27.6006 H         1 UNK         0.0000 
     39 H39         6.9865  -12.0501   23.0774 H         1 UNK         0.0000 
     40 H40         4.7485  -11.0595   23.3247 H         1 UNK         0.0000 
     41 H41         1.2708  -11.3208   29.4775 H         1 UNK         0.0000 
     42 H42        -0.4190  -13.4004   28.7663 H         1 UNK         0.0000 
     43 H43        -1.4457  -14.9330   28.8885 H         1 UNK         0.0000 
     44 H44        -3.8554  -15.8625   27.8639 H         1 UNK         0.0000 
     45 H45        -3.2171  -16.1264   29.4508 H         1 UNK         0.0000 
     46 H46        -4.2565  -20.6285   27.0632 H         1 UNK         0.0000 
     47 H47        -2.1532  -21.5906   27.8561 H         1 UNK         0.0000 
     48 H48        -0.3939  -20.1299   28.8012 H         1 UNK         0.0000 
     49 H49        -0.7835  -17.7152   29.0178 H         1 UNK         0.0000 
@<TRIPOS>BOND
     1    1    2 2    
     2    2    3 1    
     3    2   22 am   BACKBONE|DICT|INTERRES
     4    3   21 ar   
     5    3    4 ar   
     6    4    5 ar   
     7    4   34 1    
     8    5    6 ar   
     9    5   35 1    
    10    6    7 ar   
    11    6   20 ar   
    12    7    8 1    
    13    7   17 ar   
    14    8    9 1    
    15    8   36 1    
    16    8   37 1    
    17    9   16 ar   
    18    9   10 ar   
    19   10   11 ar   
    20   10   38 1    
    21   11   12 1    
    22   11   13 ar   
    23   13   14 1    
    24   13   15 ar   
    25   15   16 ar   
    26   15   39 1    
    27   16   40 1    
    28   17   18 ar   
    29   17   19 2    
    30   18   20 ar   
    31   18   41 1    
    32   20   21 ar   
    33   21   42 1    
    34   22   23 1    
    35   22   43 1    
    36   23   24 1    
    37   23   44 1    
    38   23   45 1    
    39   24   33 ar   
    40   24   25 ar   
    41   25   26 1    
    42   25   30 ar   
    43   26   27 1    
    44   26   28 1    
    45   26   29 1    
    46   30   31 ar   
    47   30   46 1    
    48   31   32 ar   
    49   31   47 1    
    50   32   33 ar   
    51   32   48 1    
    52   33   49 1    
@<TRIPOS>SUBSTRUCTURE
     1 UNK         1 GROUP             0       ****    0 ROOT    
