@<TRIPOS>MOLECULE
/home/yujie/leadopt/data/result/selection/sEH/lig_7d.sdf:1
53   56    1
SMALL
USER_CHARGES


@<TRIPOS>ATOM
      1 O1         -1.3168  -15.6479   25.8947 O.2       1 UNK         0.0000 
      2 C2         -1.1529  -14.9652   26.8974 C.2       1 UNK         0.0000 
      3 C3         -0.0739  -13.8971   26.9540 C.ar      1 UNK         0.0000 
      4 C4          0.6704  -13.6175   25.7944 C.ar      1 UNK         0.0000 
      5 C5          1.6439  -12.6194   25.7378 C.ar      1 UNK         0.0000 
      6 C6          1.8710  -11.8951   26.9105 C.ar      1 UNK         0.0000 
      7 N7          2.7264  -10.8302   27.1916 N.pl3     1 UNK         0.0000 
      8 C8          3.6502  -10.1947   26.2621 C.3       1 UNK         0.0000 
      9 C9          4.9160  -11.0001   26.0148 C.ar      1 UNK         0.0000 
     10 C10         5.8248  -11.2139   27.0572 C.ar      1 UNK         0.0000 
     11 C11         6.9986  -11.9308   26.8301 C.ar      1 UNK         0.0000 
     12 F12         7.8709  -12.1331   27.8416 F         1 UNK         0.0000 
     13 C13         7.2731  -12.4349   25.5594 C.ar      1 UNK         0.0000 
     14 C14         6.3703  -12.2285   24.5159 C.ar      1 UNK         0.0000 
     15 C15         5.1943  -11.5121   24.7427 C.ar      1 UNK         0.0000 
     16 C16         2.5921  -10.5146   28.5224 C.ar      1 UNK         0.0000 
     17 N17         1.6278  -11.3181   29.0709 N.pl3     1 UNK         0.0000 
     18 C18         1.1572  -12.1776   28.0890 C.ar      1 UNK         0.0000 
     19 C19         0.1776  -13.1677   28.1320 C.ar      1 UNK         0.0000 
     20 N20        -1.9820  -15.1008   27.9367 N.am      1 UNK         0.0000 
     21 C21        -3.1243  -16.0212   28.0119 C.3       1 UNK         0.0000 
     22 C22        -2.8194  -17.5323   27.9688 C.ar      1 UNK         0.0000 
     23 C23        -3.7302  -18.4599   27.4138 C.ar      1 UNK         0.0000 
     24 C24        -5.0198  -18.0190   26.7051 C.3       1 UNK         0.0000 
     25 F25        -4.7289  -17.2509   25.6539 F         1 UNK         0.0000 
     26 F26        -5.7287  -19.0530   26.2511 F         1 UNK         0.0000 
     27 F27        -5.7937  -17.3330   27.5423 F         1 UNK         0.0000 
     28 C28        -3.4394  -19.8303   27.4973 C.ar      1 UNK         0.0000 
     29 C29        -2.2483  -20.3030   28.0404 C.ar      1 UNK         0.0000 
     30 O30        -2.0685  -21.6730   28.0289 O.3       1 UNK         0.0000 
     31 C31        -0.8197  -22.2286   28.4285 C.3       1 UNK         0.0000 
     32 C32        -1.3294  -19.3741   28.5402 C.ar      1 UNK         0.0000 
     33 C33        -1.6141  -18.0087   28.5041 C.ar      1 UNK         0.0000 
     34 H34         0.4840  -14.1728   24.8858 H         1 UNK         0.0000 
     35 H35         2.1846  -12.4181   24.8240 H         1 UNK         0.0000 
     36 H36         3.1171  -10.0021   25.3291 H         1 UNK         0.0000 
     37 H37         3.9251   -9.2187   26.6557 H         1 UNK         0.0000 
     38 H38         5.6308  -10.8228   28.0448 H         1 UNK         0.0000 
     39 H39         8.1872  -12.9819   25.3853 H         1 UNK         0.0000 
     40 H40         6.5838  -12.6173   23.5308 H         1 UNK         0.0000 
     41 H41         4.5077  -11.3507   23.9236 H         1 UNK         0.0000 
     42 H42         3.1476   -9.7435   29.0410 H         1 UNK         0.0000 
     43 H43        -0.3677  -13.3329   29.0469 H         1 UNK         0.0000 
     44 H44        -1.7258  -14.6672   28.8239 H         1 UNK         0.0000 
     45 H45        -3.8261  -15.7294   27.2342 H         1 UNK         0.0000 
     46 H46        -3.6313  -15.8207   28.9575 H         1 UNK         0.0000 
     47 H47        -4.1277  -20.5607   27.0971 H         1 UNK         0.0000 
     48 H48        -0.8158  -23.2936   28.1966 H         1 UNK         0.0000 
     49 H49        -0.6473  -22.1327   29.4972 H         1 UNK         0.0000 
     50 H50         0.0170  -21.7800   27.8995 H         1 UNK         0.0000 
     51 H51        -0.3986  -19.6969   28.9840 H         1 UNK         0.0000 
     52 H52        -0.8981  -17.3180   28.9272 H         1 UNK         0.0000 
     53 H53         1.3363  -11.2631   30.0373 H         1 UNK         0.0000 
@<TRIPOS>BOND
     1    1    2 2    
     2    2    3 1    
     3    2   20 am   BACKBONE|DICT|INTERRES
     4    3   19 ar   
     5    3    4 ar   
     6    4    5 ar   
     7    4   34 1    
     8    5    6 ar   
     9    5   35 1    
    10    6    7 ar   
    11    6   18 ar   
    12    7    8 1    
    13    7   16 ar   
    14    8    9 1    
    15    8   36 1    
    16    8   37 1    
    17    9   15 ar   
    18    9   10 ar   
    19   10   11 ar   
    20   10   38 1    
    21   11   12 1    
    22   11   13 ar   
    23   13   14 ar   
    24   13   39 1    
    25   14   15 ar   
    26   14   40 1    
    27   15   41 1    
    28   16   17 ar   
    29   16   42 1    
    30   17   18 ar   
    31   17   53 1    
    32   18   19 ar   
    33   19   43 1    
    34   20   21 1    
    35   20   44 1    
    36   21   22 1    
    37   21   45 1    
    38   21   46 1    
    39   22   33 ar   
    40   22   23 ar   
    41   23   24 1    
    42   23   28 ar   
    43   24   25 1    
    44   24   26 1    
    45   24   27 1    
    46   28   29 ar   
    47   28   47 1    
    48   29   30 1    
    49   29   32 ar   
    50   30   31 1    
    51   31   48 1    
    52   31   49 1    
    53   31   50 1    
    54   32   33 ar   
    55   32   51 1    
    56   33   52 1    
@<TRIPOS>SUBSTRUCTURE
     1 UNK         1 GROUP             0       ****    0 ROOT    
