/home/yujie/leadopt/data/result/selection/sEH/lig_7d.sdf:1
                    3D
 Schrodinger Suite 2020-3.
 53 56  0  0  1  0            999 V2000
   -1.3168  -15.6479   25.8947 O   0  0  0  0  0  0
   -1.1529  -14.9652   26.8974 C   0  0  0  0  0  0
   -0.0739  -13.8971   26.9540 C   0  0  0  0  0  0
    0.6704  -13.6175   25.7944 C   0  0  0  0  0  0
    1.6439  -12.6194   25.7378 C   0  0  0  0  0  0
    1.8710  -11.8951   26.9105 C   0  0  0  0  0  0
    2.7264  -10.8302   27.1916 N   0  0  0  0  0  0
    3.6502  -10.1947   26.2621 C   0  0  0  0  0  0
    4.9160  -11.0001   26.0148 C   0  0  0  0  0  0
    5.8248  -11.2139   27.0572 C   0  0  0  0  0  0
    6.9986  -11.9308   26.8301 C   0  0  0  0  0  0
    7.8709  -12.1331   27.8416 F   0  0  0  0  0  0
    7.2731  -12.4349   25.5594 C   0  0  0  0  0  0
    6.3703  -12.2285   24.5159 C   0  0  0  0  0  0
    5.1943  -11.5121   24.7427 C   0  0  0  0  0  0
    2.5921  -10.5146   28.5224 C   0  0  0  0  0  0
    1.6278  -11.3181   29.0709 N   0  3  0  0  0  0
    1.1572  -12.1776   28.0890 C   0  0  0  0  0  0
    0.1776  -13.1677   28.1320 C   0  0  0  0  0  0
   -1.9820  -15.1008   27.9367 N   0  0  0  0  0  0
   -3.1243  -16.0212   28.0119 C   0  0  0  0  0  0
   -2.8194  -17.5323   27.9688 C   0  0  0  0  0  0
   -3.7302  -18.4599   27.4138 C   0  0  0  0  0  0
   -5.0198  -18.0190   26.7051 C   0  0  0  0  0  0
   -4.7289  -17.2509   25.6539 F   0  0  0  0  0  0
   -5.7287  -19.0530   26.2511 F   0  0  0  0  0  0
   -5.7937  -17.3330   27.5423 F   0  0  0  0  0  0
   -3.4394  -19.8303   27.4973 C   0  0  0  0  0  0
   -2.2483  -20.3030   28.0404 C   0  0  0  0  0  0
   -2.0685  -21.6730   28.0289 O   0  0  0  0  0  0
   -0.8197  -22.2286   28.4285 C   0  0  0  0  0  0
   -1.3294  -19.3741   28.5402 C   0  0  0  0  0  0
   -1.6141  -18.0087   28.5041 C   0  0  0  0  0  0
    0.4840  -14.1728   24.8858 H   0  0  0  0  0  0
    2.1846  -12.4181   24.8240 H   0  0  0  0  0  0
    3.1171  -10.0021   25.3291 H   0  0  0  0  0  0
    3.9251   -9.2187   26.6557 H   0  0  0  0  0  0
    5.6308  -10.8228   28.0448 H   0  0  0  0  0  0
    8.1872  -12.9819   25.3853 H   0  0  0  0  0  0
    6.5838  -12.6173   23.5308 H   0  0  0  0  0  0
    4.5077  -11.3507   23.9236 H   0  0  0  0  0  0
    3.1476   -9.7435   29.0410 H   0  0  0  0  0  0
   -0.3677  -13.3329   29.0469 H   0  0  0  0  0  0
   -1.7258  -14.6672   28.8239 H   0  0  0  0  0  0
   -3.8261  -15.7294   27.2342 H   0  0  0  0  0  0
   -3.6313  -15.8207   28.9575 H   0  0  0  0  0  0
   -4.1277  -20.5607   27.0971 H   0  0  0  0  0  0
   -0.8158  -23.2936   28.1966 H   0  0  0  0  0  0
   -0.6473  -22.1327   29.4972 H   0  0  0  0  0  0
    0.0170  -21.7800   27.8995 H   0  0  0  0  0  0
   -0.3986  -19.6969   28.9840 H   0  0  0  0  0  0
   -0.8981  -17.3180   28.9272 H   0  0  0  0  0  0
    1.3363  -11.2631   30.0373 H   0  0  0  0  0  0
  1  2  2  0  0  0
  2  3  1  0  0  0
  2 20  1  0  0  0
  3 19  1  0  0  0
  3  4  2  0  0  0
  4  5  1  0  0  0
  4 34  1  0  0  0
  5  6  2  0  0  0
  5 35  1  0  0  0
  6  7  1  0  0  0
  6 18  1  0  0  0
  7  8  1  0  0  0
  7 16  1  0  0  0
  8  9  1  0  0  0
  8 36  1  0  0  0
  8 37  1  0  0  0
  9 15  1  0  0  0
  9 10  2  0  0  0
 10 11  1  0  0  0
 10 38  1  0  0  0
 11 12  1  0  0  0
 11 13  2  0  0  0
 13 14  1  0  0  0
 13 39  1  0  0  0
 14 15  2  0  0  0
 14 40  1  0  0  0
 15 41  1  0  0  0
 16 17  2  0  0  0
 16 42  1  0  0  0
 17 18  1  0  0  0
 17 53  1  0  0  0
 18 19  2  0  0  0
 19 43  1  0  0  0
 20 21  1  0  0  0
 20 44  1  0  0  0
 21 22  1  0  0  0
 21 45  1  0  0  0
 21 46  1  0  0  0
 22 33  1  0  0  0
 22 23  2  0  0  0
 23 24  1  0  0  0
 23 28  1  0  0  0
 24 25  1  0  0  0
 24 26  1  0  0  0
 24 27  1  0  0  0
 28 29  2  0  0  0
 28 47  1  0  0  0
 29 30  1  0  0  0
 29 32  1  0  0  0
 30 31  1  0  0  0
 31 48  1  0  0  0
 31 49  1  0  0  0
 31 50  1  0  0  0
 32 33  2  0  0  0
 32 51  1  0  0  0
 33 52  1  0  0  0
M  CHG  1  17   1
M  END
> <s_m_source_file>
/home/yujie/leadopt/data/result/selection/sEH/lig_7d.sdf

> <i_m_source_file_index>
1

> <i_lp_mmshare_version>
51139

> <i_f3d_flags>
0

> <s_epik_input>
W0NIM11PYyhbY0hdW2NIXTEpW2NIXWMoQyhGKShGKUYpYzFbQ0gyXVtOSF1DKD1PKWMoW2NIXVtjSF0yKVtjSF1jKGMyMyluW2NIXW4zW0NIMl1jNFtjSF1jKEYpW2NIXVtjSF1bY0hdNA==

> <s_epik_cmdline>
J2VwaWtfcHl0aG9uJywgJy1waHQnLCAnMi4wJywgJy1waCcsICc3LjAnLCAnLXRuJywgJzgnLCAnLW1hJywgJzIwMCcsICctaW1hZScsICc8aW5maWxlLm1hZT4nLCAnLW9tYWUnLCAnPG91dGZpbGUubWFlPic=

> <r_lp_tautomer_probability>
1

> <r_epik_Ionization_Penalty>
  2.2442

> <r_epik_Ionization_Penalty_Charging>
  2.2442

> <r_epik_Ionization_Penalty_Neutral>
  0.0000

> <r_epik_State_Penalty>
  2.3908

> <r_epik_Charging_Adjusted_Penalty>
4.63506

> <i_epik_Tot_Q>
1

> <i_epik_Tot_abs_Q>
1

> <s_lp_Force_Field>
OPLS3e

> <r_lp_Energy>
47.9994

> <b_lp_Chiralities_Consistent>
1

> <s_lp_Variant>
/home/yujie/leadopt/data/result/selection/sEH/lig_7d.sdf:1-2

> <s_i_glide_gridfile>
glide-grid_sEH

> <i_i_glide_lignum>
2

> <i_i_glide_rotatable_bonds>
8

> <r_i_docking_score>
-9.09386324830325

> <r_i_glide_ligand_efficiency>
-0.275571613584947

> <r_i_glide_ligand_efficiency_sa>
-0.883905409915867

> <r_i_glide_ligand_efficiency_ln>
-2.0224281009187

> <r_i_glide_gscore>
-11.4847032483032

> <r_i_glide_lipo>
-4.17259700496985

> <r_i_glide_hbond>
-0.664452942733138

> <r_i_glide_metal>
-0

> <r_i_glide_rewards>
-2.98306624233996

> <r_i_glide_evdw>
-48.4874420166016

> <r_i_glide_ecoul>
-10.7629041671753

> <r_i_glide_erotb>
0.574220667646067

> <r_i_glide_esite>
-0.2

> <r_i_glide_emodel>
-108.204331219522

> <r_i_glide_energy>
-59.2503461837769

> <r_i_glide_einternal>
1.61158537864685

> <i_i_glide_confnum>
94

> <i_i_glide_posenum>
215

> <r_i_glide_eff_state_penalty>
2.39084

$$$$
