@<TRIPOS>MOLECULE
/home/yujie/leadopt/data/result/selection/sEH/lig_11n.sdf:1
63   67    1
SMALL
USER_CHARGES


@<TRIPOS>ATOM
      1 O1         -1.5334  -15.7339   25.8839 O.2       1 UNK         0.0000 
      2 C2         -1.3252  -14.9661   26.8177 C.2       1 UNK         0.0000 
      3 C3         -0.1977  -13.9692   26.7405 C.ar      1 UNK         0.0000 
      4 C4          0.3757  -13.6784   25.4970 C.ar      1 UNK         0.0000 
      5 C5          1.3970  -12.7506   25.3316 C.ar      1 UNK         0.0000 
      6 C6          1.8888  -12.1442   26.4890 C.ar      1 UNK         0.0000 
      7 N7          2.8923  -11.2088   26.6689 N.pl3     1 UNK         0.0000 
      8 C8          3.6817  -10.6019   25.5907 C.3       1 UNK         0.0000 
      9 C9          5.0324  -11.2633   25.3529 C.ar      1 UNK         0.0000 
     10 C10         5.1188  -12.4267   24.5821 C.ar      1 UNK         0.0000 
     11 C11         6.3575  -13.0224   24.3460 C.ar      1 UNK         0.0000 
     12 F12         6.4367  -14.1327   23.5822 F         1 UNK         0.0000 
     13 C13         7.5160  -12.4686   24.8896 C.ar      1 UNK         0.0000 
     14 C14         7.4377  -11.3102   25.6623 C.ar      1 UNK         0.0000 
     15 C15         6.2000  -10.7063   25.8879 C.ar      1 UNK         0.0000 
     16 C16         3.0668  -11.0035   28.0270 C.ar      1 UNK         0.0000 
     17 C17         4.1611  -10.1438   28.5695 C.3       1 UNK         0.0000 
     18 C18         2.1097  -11.7031   28.7219 C.ar      1 UNK         0.0000 
     19 C19         1.3562  -12.4433   27.7754 C.ar      1 UNK         0.0000 
     20 C20         0.2951  -13.3409   27.8881 C.ar      1 UNK         0.0000 
     21 N21        -2.1215  -14.9473   27.8973 N.am      1 UNK         0.0000 
     22 C22        -3.2181  -15.8942   28.1172 C.3       1 UNK         0.0000 
     23 C23        -2.7961  -17.3715   28.1922 C.ar      1 UNK         0.0000 
     24 C24        -3.6284  -18.4161   27.7393 C.ar      1 UNK         0.0000 
     25 C25        -5.0126  -18.1485   27.1270 C.3       1 UNK         0.0000 
     26 F26        -4.8680  -17.5807   25.9291 F         1 UNK         0.0000 
     27 F27        -5.7233  -19.2647   26.9627 F         1 UNK         0.0000 
     28 F28        -5.7285  -17.3330   27.8967 F         1 UNK         0.0000 
     29 C29        -3.1653  -19.7384   27.8386 C.ar      1 UNK         0.0000 
     30 C30        -1.8776  -20.0539   28.2964 C.ar      1 UNK         0.0000 
     31 N31        -1.3293  -21.3071   28.3895 N.2       1 UNK         0.0000 
     32 S32        -2.1472  -22.6346   28.4049 S.o2      1 UNK         0.0000 
     33 C33        -2.6548  -22.8259   26.5919 C.3       1 UNK         0.0000 
     34 C34        -3.4233  -24.0627   26.1895 C.3       1 UNK         0.0000 
     35 C35        -4.1288  -22.7273   26.2941 C.3       1 UNK         0.0000 
     36 O36        -3.3841  -22.5312   29.1895 O.2       1 UNK         0.0000 
     37 O37        -1.2907  -23.7905   28.6857 O.2       1 UNK         0.0000 
     38 C38        -1.0706  -18.9951   28.6971 C.ar      1 UNK         0.0000 
     39 C39        -1.5179  -17.6830   28.6687 C.ar      1 UNK         0.0000 
     40 H40         0.0136  -14.1651   24.6039 H         1 UNK         0.0000 
     41 H41         1.7946  -12.5358   24.3498 H         1 UNK         0.0000 
     42 H42         3.1011  -10.6352   24.6676 H         1 UNK         0.0000 
     43 H43         3.7947   -9.5363   25.7885 H         1 UNK         0.0000 
     44 H44         4.2301  -12.8664   24.1561 H         1 UNK         0.0000 
     45 H45         8.4721  -12.9354   24.7052 H         1 UNK         0.0000 
     46 H46         8.3348  -10.8768   26.0806 H         1 UNK         0.0000 
     47 H47         6.1556   -9.8038   26.4784 H         1 UNK         0.0000 
     48 H48         3.8714   -9.7334   29.5330 H         1 UNK         0.0000 
     49 H49         5.0808  -10.7101   28.7191 H         1 UNK         0.0000 
     50 H50         4.3920   -9.3330   27.8954 H         1 UNK         0.0000 
     51 H51         1.9969  -11.7078   29.7961 H         1 UNK         0.0000 
     52 H52        -0.1038  -13.5534   28.8648 H         1 UNK         0.0000 
     53 H53        -1.8212  -14.4479   28.7322 H         1 UNK         0.0000 
     54 H54        -3.9429  -15.7315   27.3206 H         1 UNK         0.0000 
     55 H55        -3.7148  -15.6276   29.0519 H         1 UNK         0.0000 
     56 H56        -3.8148  -20.5336   27.5249 H         1 UNK         0.0000 
     57 H57        -1.9010  -22.4205   25.9205 H         1 UNK         0.0000 
     58 H58        -3.6041  -24.8260   26.9472 H         1 UNK         0.0000 
     59 H59        -3.2387  -24.4912   25.2048 H         1 UNK         0.0000 
     60 H60        -4.4056  -22.1338   25.4256 H         1 UNK         0.0000 
     61 H61        -4.8414  -22.5904   27.1079 H         1 UNK         0.0000 
     62 H62        -0.0893  -19.1971   29.0974 H         1 UNK         0.0000 
     63 H63        -0.8565  -16.9070   29.0279 H         1 UNK         0.0000 
@<TRIPOS>BOND
     1    1    2 2    
     2    2    3 1    
     3    2   21 am   BACKBONE|DICT|INTERRES
     4    3   20 ar   
     5    3    4 ar   
     6    4    5 ar   
     7    4   40 1    
     8    5    6 ar   
     9    5   41 1    
    10    6    7 ar   
    11    6   19 ar   
    12    7    8 1    
    13    7   16 ar   
    14    8    9 1    
    15    8   42 1    
    16    8   43 1    
    17    9   15 ar   
    18    9   10 ar   
    19   10   11 ar   
    20   10   44 1    
    21   11   12 1    
    22   11   13 ar   
    23   13   14 ar   
    24   13   45 1    
    25   14   15 ar   
    26   14   46 1    
    27   15   47 1    
    28   16   17 1    
    29   16   18 ar   
    30   17   48 1    
    31   17   49 1    
    32   17   50 1    
    33   18   19 ar   
    34   18   51 1    
    35   19   20 ar   
    36   20   52 1    
    37   21   22 1    
    38   21   53 1    
    39   22   23 1    
    40   22   54 1    
    41   22   55 1    
    42   23   39 ar   
    43   23   24 ar   
    44   24   25 1    
    45   24   29 ar   
    46   25   26 1    
    47   25   27 1    
    48   25   28 1    
    49   29   30 ar   
    50   29   56 1    
    51   30   31 1    
    52   30   38 ar   
    53   31   32 1    
    54   32   33 1    
    55   32   36 2    
    56   32   37 2    
    57   33   35 1    
    58   33   34 1    
    59   33   57 1    
    60   34   35 1    
    61   34   58 1    
    62   34   59 1    
    63   35   60 1    
    64   35   61 1    
    65   38   39 ar   
    66   38   62 1    
    67   39   63 1    
@<TRIPOS>SUBSTRUCTURE
     1 UNK         1 GROUP             0       ****    0 ROOT    
