@<TRIPOS>MOLECULE
/home/yujie/leadopt/data/result/selection/sEH/lig_10a.sdf:1
43   45    1
SMALL
USER_CHARGES


@<TRIPOS>ATOM
      1 O1         -1.3290  -15.3329   25.6452 O.2       1 UNK         0.0000 
      2 C2         -0.9197  -14.9766   26.7521 C.2       1 UNK         0.0000 
      3 C3          0.2075  -13.9751   26.8634 C.ar      1 UNK         0.0000 
      4 C4          1.1456  -13.8745   25.8280 C.ar      1 UNK         0.0000 
      5 C5          2.1882  -12.9484   25.8411 C.ar      1 UNK         0.0000 
      6 C6          2.2682  -12.1009   26.9476 C.ar      1 UNK         0.0000 
      7 N7          3.1642  -11.0988   27.2577 N.pl3     1 UNK         0.0000 
      8 C8          2.8422  -10.5344   28.4661 C.ar      1 UNK         0.0000 
      9 C9          1.7196  -11.1594   28.9682 C.ar      1 UNK         0.0000 
     10 C10         1.3334  -12.1637   28.0220 C.ar      1 UNK         0.0000 
     11 C11         0.2994  -13.1090   27.9636 C.ar      1 UNK         0.0000 
     12 N12        -1.4616  -15.4250   27.8972 N.am      1 UNK         0.0000 
     13 C13        -2.6949  -16.2085   27.9869 C.3       1 UNK         0.0000 
     14 C14        -2.5971  -17.7460   28.0107 C.ar      1 UNK         0.0000 
     15 C15        -3.7446  -18.5336   27.7794 C.ar      1 UNK         0.0000 
     16 C16        -5.1015  -17.9050   27.4364 C.3       1 UNK         0.0000 
     17 F17        -5.3793  -16.9329   28.2969 F         1 UNK         0.0000 
     18 F18        -5.0705  -17.3975   26.2034 F         1 UNK         0.0000 
     19 F19        -6.1058  -18.7780   27.4961 F         1 UNK         0.0000 
     20 C20        -3.6542  -19.9267   27.8990 C.ar      1 UNK         0.0000 
     21 C21        -2.4655  -20.5870   28.2144 C.ar      1 UNK         0.0000 
     22 N22        -2.5558  -21.9507   28.3572 N.2       1 UNK         0.0000 
     23 S23        -1.3971  -23.0069   28.2963 S.o2      1 UNK         0.0000 
     24 C24        -1.2476  -23.3334   26.4558 C.3       1 UNK         0.0000 
     25 O25        -0.0717  -22.5311   28.6972 O.2       1 UNK         0.0000 
     26 O26        -1.8130  -24.2889   28.8697 O.2       1 UNK         0.0000 
     27 C27        -1.3291  -19.7879   28.3922 C.ar      1 UNK         0.0000 
     28 C28        -1.3892  -18.3941   28.2971 C.ar      1 UNK         0.0000 
     29 H29         1.0708  -14.5312   24.9720 H         1 UNK         0.0000 
     30 H30         2.8949  -12.8930   25.0267 H         1 UNK         0.0000 
     31 H31         3.9557  -10.7961   26.7089 H         1 UNK         0.0000 
     32 H32         3.4489   -9.7332   28.8659 H         1 UNK         0.0000 
     33 H33         1.2335  -10.9266   29.9019 H         1 UNK         0.0000 
     34 H34        -0.4289  -13.1458   28.7607 H         1 UNK         0.0000 
     35 H35        -1.0743  -15.1254   28.7942 H         1 UNK         0.0000 
     36 H36        -3.1826  -15.8971   28.9123 H         1 UNK         0.0000 
     37 H37        -3.3532  -15.9024   27.1727 H         1 UNK         0.0000 
     38 H38        -4.5396  -20.5280   27.7475 H         1 UNK         0.0000 
     39 H39        -0.4733  -24.0825   26.3039 H         1 UNK         0.0000 
     40 H40        -2.2059  -23.7002   26.0925 H         1 UNK         0.0000 
     41 H41        -0.9835  -22.4042   25.9561 H         1 UNK         0.0000 
     42 H42        -0.3809  -20.2227   28.6626 H         1 UNK         0.0000 
     43 H43        -0.4918  -17.8222   28.4825 H         1 UNK         0.0000 
@<TRIPOS>BOND
     1    1    2 2    
     2    2    3 1    
     3    2   12 am   BACKBONE|DICT|INTERRES
     4    3   11 ar   
     5    3    4 ar   
     6    4    5 ar   
     7    4   29 1    
     8    5    6 ar   
     9    5   30 1    
    10    6    7 ar   
    11    6   10 ar   
    12    7    8 ar   
    13    7   31 1    
    14    8    9 ar   
    15    8   32 1    
    16    9   10 ar   
    17    9   33 1    
    18   10   11 ar   
    19   11   34 1    
    20   12   13 1    
    21   12   35 1    
    22   13   14 1    
    23   13   36 1    
    24   13   37 1    
    25   14   28 ar   
    26   14   15 ar   
    27   15   16 1    
    28   15   20 ar   
    29   16   17 1    
    30   16   18 1    
    31   16   19 1    
    32   20   21 ar   
    33   20   38 1    
    34   21   22 1    
    35   21   27 ar   
    36   22   23 1    
    37   23   24 1    
    38   23   25 2    
    39   23   26 2    
    40   24   39 1    
    41   24   40 1    
    42   24   41 1    
    43   27   28 ar   
    44   27   42 1    
    45   28   43 1    
@<TRIPOS>SUBSTRUCTURE
     1 UNK         1 GROUP             0       ****    0 ROOT    
