@<TRIPOS>MOLECULE
/home/yujie/leadopt/data/result/selection/sEH/lig_10d.sdf:1
56   59    1
SMALL
USER_CHARGES


@<TRIPOS>ATOM
      1 O1         -1.6191  -15.7450   25.8772 O.2       1 UNK         0.0000 
      2 C2         -1.3284  -15.1408   26.9022 C.2       1 UNK         0.0000 
      3 C3         -0.2219  -14.1063   26.8819 C.ar      1 UNK         0.0000 
      4 C4          0.5367  -13.9395   25.7143 C.ar      1 UNK         0.0000 
      5 C5          1.5266  -12.9773   25.5779 C.ar      1 UNK         0.0000 
      6 C6          1.7314  -12.1168   26.6569 C.ar      1 UNK         0.0000 
      7 N7          2.5387  -11.0017   26.7968 N.pl3     1 UNK         0.0000 
      8 S8          3.6872  -10.3803   25.6797 S.o2      1 UNK         0.0000 
      9 C9          5.2659  -11.0101   26.2363 C.ar      1 UNK         0.0000 
     10 C10         6.0622  -11.7677   25.3713 C.ar      1 UNK         0.0000 
     11 C11         7.3004  -12.2392   25.8029 C.ar      1 UNK         0.0000 
     12 F12         8.0895  -12.9337   24.9541 F         1 UNK         0.0000 
     13 C13         7.7289  -11.9912   27.1054 C.ar      1 UNK         0.0000 
     14 C14         6.9429  -11.2326   27.9715 C.ar      1 UNK         0.0000 
     15 C15         5.7183  -10.7309   27.5315 C.ar      1 UNK         0.0000 
     16 O16         3.3905  -10.9598   24.3640 O.2       1 UNK         0.0000 
     17 O17         3.6763   -8.9332   25.8878 O.2       1 UNK         0.0000 
     18 C18         2.3917  -10.5013   28.0744 C.ar      1 UNK         0.0000 
     19 C19         1.4700  -11.2488   28.7699 C.ar      1 UNK         0.0000 
     20 C20         1.0018  -12.2592   27.8761 C.ar      1 UNK         0.0000 
     21 C21         0.0322  -13.2661   27.9723 C.ar      1 UNK         0.0000 
     22 N22        -2.0359  -15.3296   28.0237 N.am      1 UNK         0.0000 
     23 C23        -3.2317  -16.1710   28.1209 C.3       1 UNK         0.0000 
     24 C24        -3.0510  -17.6858   27.8934 C.ar      1 UNK         0.0000 
     25 C25        -4.0618  -18.4880   27.3253 C.ar      1 UNK         0.0000 
     26 C26        -5.2864  -17.8882   26.6142 C.3       1 UNK         0.0000 
     27 F27        -5.9678  -18.8103   25.9372 F         1 UNK         0.0000 
     28 F28        -6.1127  -17.3337   27.4966 F         1 UNK         0.0000 
     29 F29        -4.9141  -16.9678   25.7230 F         1 UNK         0.0000 
     30 C30        -3.9239  -19.8837   27.3864 C.ar      1 UNK         0.0000 
     31 C31        -2.7874  -20.5173   27.8969 C.ar      1 UNK         0.0000 
     32 N32        -2.8383  -21.8871   27.9777 N.2       1 UNK         0.0000 
     33 S33        -1.6544  -22.8932   28.1951 S.o2      1 UNK         0.0000 
     34 C34        -1.2501  -23.4026   26.4410 C.3       1 UNK         0.0000 
     35 O35        -2.1033  -24.1237   28.8511 O.2       1 UNK         0.0000 
     36 O36        -0.4033  -22.3218   28.6971 O.2       1 UNK         0.0000 
     37 C37        -1.7327  -19.6888   28.2974 C.ar      1 UNK         0.0000 
     38 C38        -1.8630  -18.3011   28.3009 C.ar      1 UNK         0.0000 
     39 H39         0.3397  -14.5322   24.8393 H         1 UNK         0.0000 
     40 H40         2.0558  -12.8799   24.6435 H         1 UNK         0.0000 
     41 H41         5.7356  -11.9782   24.3628 H         1 UNK         0.0000 
     42 H42         8.6716  -12.3864   27.4433 H         1 UNK         0.0000 
     43 H43         7.2815  -11.0310   28.9771 H         1 UNK         0.0000 
     44 H44         5.1280  -10.1334   28.2086 H         1 UNK         0.0000 
     45 H45         2.9526   -9.6294   28.3790 H         1 UNK         0.0000 
     46 H46         1.1467  -11.0634   29.7838 H         1 UNK         0.0000 
     47 H47        -0.5444  -13.3328   28.8801 H         1 UNK         0.0000 
     48 H48        -1.6929  -14.9336   28.8987 H         1 UNK         0.0000 
     49 H49        -3.9869  -15.7338   27.4706 H         1 UNK         0.0000 
     50 H50        -3.6268  -16.0478   29.1301 H         1 UNK         0.0000 
     51 H51        -4.7261  -20.5075   27.0187 H         1 UNK         0.0000 
     52 H52        -0.4523  -24.1435   26.4775 H         1 UNK         0.0000 
     53 H53        -0.9292  -22.5183   25.8949 H         1 UNK         0.0000 
     54 H54        -2.1432  -23.8277   25.9869 H         1 UNK         0.0000 
     55 H55        -0.8113  -20.0844   28.6873 H         1 UNK         0.0000 
     56 H56        -1.0541  -17.7092   28.7026 H         1 UNK         0.0000 
@<TRIPOS>BOND
     1    1    2 2    
     2    2    3 1    
     3    2   22 am   BACKBONE|DICT|INTERRES
     4    3   21 ar   
     5    3    4 ar   
     6    4    5 ar   
     7    4   39 1    
     8    5    6 ar   
     9    5   40 1    
    10    6    7 ar   
    11    6   20 ar   
    12    7    8 1    
    13    7   18 ar   
    14    8    9 1    
    15    8   16 2    
    16    8   17 2    
    17    9   15 ar   
    18    9   10 ar   
    19   10   11 ar   
    20   10   41 1    
    21   11   12 1    
    22   11   13 ar   
    23   13   14 ar   
    24   13   42 1    
    25   14   15 ar   
    26   14   43 1    
    27   15   44 1    
    28   18   19 ar   
    29   18   45 1    
    30   19   20 ar   
    31   19   46 1    
    32   20   21 ar   
    33   21   47 1    
    34   22   23 1    
    35   22   48 1    
    36   23   24 1    
    37   23   49 1    
    38   23   50 1    
    39   24   38 ar   
    40   24   25 ar   
    41   25   26 1    
    42   25   30 ar   
    43   26   27 1    
    44   26   28 1    
    45   26   29 1    
    46   30   31 ar   
    47   30   51 1    
    48   31   32 1    
    49   31   37 ar   
    50   32   33 1    
    51   33   34 1    
    52   33   35 2    
    53   33   36 2    
    54   34   52 1    
    55   34   53 1    
    56   34   54 1    
    57   37   38 ar   
    58   37   55 1    
    59   38   56 1    
@<TRIPOS>SUBSTRUCTURE
     1 UNK         1 GROUP             0       ****    0 ROOT    
