/home/yujie/leadopt/data/result/selection/sEH/lig_8f.sdf:1
                    3D
 Schrodinger Suite 2020-3.
 56 59  0  0  1  0            999 V2000
   -1.3289  -15.6112   25.8505 O   0  0  0  0  0  0
   -1.1474  -14.9258   26.8538 C   0  0  0  0  0  0
   -0.0325  -13.8994   26.9095 C   0  0  0  0  0  0
    0.8481  -13.7717   25.8246 C   0  0  0  0  0  0
    1.8468  -12.8017   25.7679 C   0  0  0  0  0  0
    1.9499  -11.9281   26.8557 C   0  0  0  0  0  0
    2.7818  -10.8402   27.0851 N   0  0  0  0  0  0
    3.8516  -10.3667   26.2140 C   0  0  0  0  0  0
    5.2070  -10.9918   26.5163 C   0  0  0  0  0  0
    5.8965  -11.6955   25.5231 C   0  0  0  0  0  0
    7.1463  -12.2497   25.7973 C   0  0  0  0  0  0
    7.8072  -12.9332   24.8361 F   0  0  0  0  0  0
    7.7147  -12.1028   27.0620 C   0  0  0  0  0  0
    7.0355  -11.4010   28.0563 C   0  0  0  0  0  0
    5.7876  -10.8480   27.7819 C   0  0  0  0  0  0
    2.4991  -10.3144   28.3239 C   0  0  0  0  0  0
    1.4897  -11.0305   28.9217 C   0  0  0  0  0  0
    1.1003  -12.0471   27.9952 C   0  0  0  0  0  0
    0.1191  -13.0430   28.0106 C   0  0  0  0  0  0
   -1.9845  -15.0162   27.8974 N   0  0  0  0  0  0
   -3.1404  -15.9181   27.9841 C   0  0  0  0  0  0
   -2.8367  -17.4279   27.9842 C   0  0  0  0  0  0
   -3.7189  -18.3773   27.4162 C   0  0  0  0  0  0
   -5.0163  -17.9687   26.7004 C   0  0  0  0  0  0
   -5.7955  -17.2856   27.5319 F   0  0  0  0  0  0
   -4.7376  -17.2107   25.6389 F   0  0  0  0  0  0
   -5.7200  -19.0157   26.2678 F   0  0  0  0  0  0
   -3.3938  -19.7401   27.4972 C   0  0  0  0  0  0
   -2.2071  -20.1730   28.0878 C   0  0  0  0  0  0
   -1.8617  -21.6550   28.1151 C   0  0  0  0  0  0
   -3.0567  -22.6114   29.0974 S   0  0  0  0  0  0
   -2.3880  -24.2828   28.8778 C   0  0  0  0  0  0
   -1.3277  -19.2297   28.6149 C   0  0  0  0  0  0
   -1.6385  -17.8745   28.5625 C   0  0  0  0  0  0
    0.7543  -14.4329   24.9745 H   0  0  0  0  0  0
    2.4927  -12.7221   24.9054 H   0  0  0  0  0  0
    3.5557  -10.5542   25.1793 H   0  0  0  0  0  0
    3.9198   -9.2840   26.3108 H   0  0  0  0  0  0
    5.4703  -11.8151   24.5365 H   0  0  0  0  0  0
    8.6814  -12.5328   27.2685 H   0  0  0  0  0  0
    7.4706  -11.2811   29.0383 H   0  0  0  0  0  0
    5.2801  -10.2996   28.5623 H   0  0  0  0  0  0
    3.0596   -9.4646   28.6859 H   0  0  0  0  0  0
    1.0701  -10.8397   29.8969 H   0  0  0  0  0  0
   -0.5306  -13.1063   28.8673 H   0  0  0  0  0  0
   -1.7257  -14.5584   28.7723 H   0  0  0  0  0  0
   -3.8230  -15.6533   27.1800 H   0  0  0  0  0  0
   -3.6700  -15.6864   28.9120 H   0  0  0  0  0  0
   -4.0550  -20.4834   27.0745 H   0  0  0  0  0  0
   -0.8581  -21.8165   28.5117 H   0  0  0  0  0  0
   -1.8619  -22.0377   27.0941 H   0  0  0  0  0  0
   -3.0000  -25.0064   29.4169 H   0  0  0  0  0  0
   -1.3685  -24.3419   29.2597 H   0  0  0  0  0  0
   -2.3812  -24.5578   27.8227 H   0  0  0  0  0  0
   -0.4022  -19.5418   29.0823 H   0  0  0  0  0  0
   -0.9453  -17.1672   28.9964 H   0  0  0  0  0  0
  1  2  2  0  0  0
  2  3  1  0  0  0
  2 20  1  0  0  0
  3 19  1  0  0  0
  3  4  2  0  0  0
  4  5  1  0  0  0
  4 35  1  0  0  0
  5  6  2  0  0  0
  5 36  1  0  0  0
  6  7  1  0  0  0
  6 18  1  0  0  0
  7  8  1  0  0  0
  7 16  1  0  0  0
  8  9  1  0  0  0
  8 37  1  0  0  0
  8 38  1  0  0  0
  9 15  1  0  0  0
  9 10  2  0  0  0
 10 11  1  0  0  0
 10 39  1  0  0  0
 11 12  1  0  0  0
 11 13  2  0  0  0
 13 14  1  0  0  0
 13 40  1  0  0  0
 14 15  2  0  0  0
 14 41  1  0  0  0
 15 42  1  0  0  0
 16 17  2  0  0  0
 16 43  1  0  0  0
 17 18  1  0  0  0
 17 44  1  0  0  0
 18 19  2  0  0  0
 19 45  1  0  0  0
 20 21  1  0  0  0
 20 46  1  0  0  0
 21 22  1  0  0  0
 21 47  1  0  0  0
 21 48  1  0  0  0
 22 34  1  0  0  0
 22 23  2  0  0  0
 23 24  1  0  0  0
 23 28  1  0  0  0
 24 25  1  0  0  0
 24 26  1  0  0  0
 24 27  1  0  0  0
 28 29  2  0  0  0
 28 49  1  0  0  0
 29 30  1  0  0  0
 29 33  1  0  0  0
 30 31  1  0  0  0
 30 50  1  0  0  0
 30 51  1  0  0  0
 31 32  1  0  0  0
 32 52  1  0  0  0
 32 53  1  0  0  0
 32 54  1  0  0  0
 33 34  2  0  0  0
 33 55  1  0  0  0
 34 56  1  0  0  0
M  END
> <s_m_source_file>
/home/yujie/leadopt/data/result/selection/sEH/lig_8f.sdf

> <i_m_source_file_index>
1

> <i_lp_mmshare_version>
51139

> <i_f3d_flags>
0

> <s_epik_input>
W0NIM11TW0NIMl1jKFtjSF1bY0hdMSlbY0hdYyhDKEYpKEYpRiljMVtDSDJdW05IXUMoPU8pYyhbY0hdW2NIXTIpW2NIXWMoYzIzKVtjSF1bY0hdbjNbQ0gyXWM0W2NIXWMoRilbY0hdW2NIXVtjSF00

> <s_epik_cmdline>
J2VwaWtfcHl0aG9uJywgJy1waHQnLCAnMi4wJywgJy1waCcsICc3LjAnLCAnLXRuJywgJzgnLCAnLW1hJywgJzIwMCcsICctaW1hZScsICc8aW5maWxlLm1hZT4nLCAnLW9tYWUnLCAnPG91dGZpbGUubWFlPic=

> <r_lp_tautomer_probability>
1

> <r_epik_Ionization_Penalty>
  0.0000

> <r_epik_Ionization_Penalty_Charging>
  0.0000

> <r_epik_Ionization_Penalty_Neutral>
  0.0000

> <r_epik_State_Penalty>
 -0.0000

> <r_epik_Charging_Adjusted_Penalty>
0

> <i_epik_Tot_Q>
0

> <i_epik_Tot_abs_Q>
0

> <s_lp_Force_Field>
OPLS3e

> <r_lp_Energy>
37.0983

> <b_lp_Chiralities_Consistent>
1

> <s_lp_Variant>
/home/yujie/leadopt/data/result/selection/sEH/lig_8f.sdf:1-1

> <s_i_glide_gridfile>
glide-grid_sEH

> <i_i_glide_lignum>
1

> <i_i_glide_rotatable_bonds>
9

> <r_i_docking_score>
-12.975602757217

> <r_i_glide_ligand_efficiency>
-0.381635375212265

> <r_i_glide_ligand_efficiency_sa>
-1.23635046386934

> <r_i_glide_ligand_efficiency_ln>
-2.86667460239866

> <r_i_glide_gscore>
-12.975602757217

> <r_i_glide_lipo>
-5.52120812339807

> <r_i_glide_hbond>
-0.691817526299756

> <r_i_glide_metal>
-0

> <r_i_glide_rewards>
-2.4588360129442

> <r_i_glide_evdw>
-55.4450874328613

> <r_i_glide_ecoul>
-12.8832216262817

> <r_i_glide_erotb>
0.600996521010328

> <r_i_glide_esite>
-0.2

> <r_i_glide_emodel>
-124.115467239926

> <r_i_glide_energy>
-68.3283090591431

> <r_i_glide_einternal>
3.62418222427368

> <i_i_glide_confnum>
59

> <i_i_glide_posenum>
343

> <r_i_glide_eff_state_penalty>
-0

$$$$
