@<TRIPOS>MOLECULE
/home/yujie/leadopt/data/result/selection/sEH/lig_9c.sdf:1
54   57    1
SMALL
USER_CHARGES


@<TRIPOS>ATOM
      1 O1         -1.3292  -15.7320   25.8841 O.2       1 UNK         0.0000 
      2 C2         -1.1657  -15.0224   26.8668 C.2       1 UNK         0.0000 
      3 C3         -0.0868  -13.9560   26.8845 C.ar      1 UNK         0.0000 
      4 C4          0.6763  -13.7259   25.7315 C.ar      1 UNK         0.0000 
      5 C5          1.6311  -12.7137   25.6440 C.ar      1 UNK         0.0000 
      6 C6          1.8170  -11.9096   26.7745 C.ar      1 UNK         0.0000 
      7 N7          2.6352  -10.8097   26.9927 N.pl3     1 UNK         0.0000 
      8 C8          3.5835  -10.2408   26.0445 C.3       1 UNK         0.0000 
      9 C9          4.9480  -10.9067   26.1122 C.ar      1 UNK         0.0000 
     10 C10         5.8033  -10.6224   27.1799 C.ar      1 UNK         0.0000 
     11 C11         7.0527  -11.2291   27.2627 C.ar      1 UNK         0.0000 
     12 F12         7.8699  -10.9315   28.2958 F         1 UNK         0.0000 
     13 C13         7.4565  -12.1321   26.2792 C.ar      1 UNK         0.0000 
     14 C14         6.6064  -12.4265   25.2125 C.ar      1 UNK         0.0000 
     15 C15         5.3542  -11.8130   25.1274 C.ar      1 UNK         0.0000 
     16 C16         2.4865  -10.3936   28.2964 C.ar      1 UNK         0.0000 
     17 C17         1.5396  -11.1667   28.9295 C.ar      1 UNK         0.0000 
     18 C18         1.0878  -12.1332   27.9778 C.ar      1 UNK         0.0000 
     19 C19         0.1410  -13.1617   28.0174 C.ar      1 UNK         0.0000 
     20 N20        -2.0016  -15.1143   27.9067 N.am      1 UNK         0.0000 
     21 C21        -3.2142  -15.9400   27.9471 C.3       1 UNK         0.0000 
     22 C22        -3.0669  -17.4688   27.9781 C.ar      1 UNK         0.0000 
     23 C23        -4.2027  -18.2776   27.8061 C.ar      1 UNK         0.0000 
     24 Cl24       -5.7640  -17.5970   27.4963 Cl        1 UNK         0.0000 
     25 C25        -4.1019  -19.6646   27.9058 C.ar      1 UNK         0.0000 
     26 C26        -2.8825  -20.2787   28.1935 C.ar      1 UNK         0.0000 
     27 N27        -2.9004  -21.6613   28.4372 N.pl3     1 UNK         0.0000 
     28 S28        -1.5716  -22.7891   28.1225 S.o2      1 UNK         0.0000 
     29 C29        -1.4689  -22.7612   26.2512 C.3       1 UNK         0.0000 
     30 O30        -2.0660  -24.1051   28.5328 O.2       1 UNK         0.0000 
     31 O31        -0.3365  -22.2444   28.6925 O.2       1 UNK         0.0000 
     32 C32        -1.7377  -19.4827   28.3004 C.ar      1 UNK         0.0000 
     33 C33        -1.8290  -18.0929   28.1983 C.ar      1 UNK         0.0000 
     34 H34         0.5225  -14.3320   24.8486 H         1 UNK         0.0000 
     35 H35         2.1840  -12.5529   24.7305 H         1 UNK         0.0000 
     36 H36         3.1635  -10.3141   25.0396 H         1 UNK         0.0000 
     37 H37         3.6770   -9.1726   26.2402 H         1 UNK         0.0000 
     38 H38         5.5067   -9.9313   27.9538 H         1 UNK         0.0000 
     39 H39         8.4273  -12.5995   26.3439 H         1 UNK         0.0000 
     40 H40         6.9154  -13.1276   24.4508 H         1 UNK         0.0000 
     41 H41         4.7017  -12.0474   24.2995 H         1 UNK         0.0000 
     42 H42         3.0714   -9.5625   28.6638 H         1 UNK         0.0000 
     43 H43         1.2099  -11.0469   29.9495 H         1 UNK         0.0000 
     44 H44        -0.4217  -13.3060   28.9235 H         1 UNK         0.0000 
     45 H45        -1.7277  -14.6933   28.7952 H         1 UNK         0.0000 
     46 H46        -3.8446  -15.6720   27.0983 H         1 UNK         0.0000 
     47 H47        -3.7724  -15.6460   28.8378 H         1 UNK         0.0000 
     48 H48        -4.9950  -20.2630   27.8033 H         1 UNK         0.0000 
     49 H49        -3.8074  -22.0993   28.4737 H         1 UNK         0.0000 
     50 H50        -0.6273  -23.3780   25.9398 H         1 UNK         0.0000 
     51 H51        -1.3292  -21.7335   25.9252 H         1 UNK         0.0000 
     52 H52        -2.3987  -23.1597   25.8477 H         1 UNK         0.0000 
     53 H53        -0.7738  -19.9110   28.5281 H         1 UNK         0.0000 
     54 H54        -0.9317  -17.5058   28.3347 H         1 UNK         0.0000 
@<TRIPOS>BOND
     1    1    2 2    
     2    2    3 1    
     3    2   20 am   BACKBONE|DICT|INTERRES
     4    3   19 ar   
     5    3    4 ar   
     6    4    5 ar   
     7    4   34 1    
     8    5    6 ar   
     9    5   35 1    
    10    6    7 ar   
    11    6   18 ar   
    12    7    8 1    
    13    7   16 ar   
    14    8    9 1    
    15    8   36 1    
    16    8   37 1    
    17    9   15 ar   
    18    9   10 ar   
    19   10   11 ar   
    20   10   38 1    
    21   11   12 1    
    22   11   13 ar   
    23   13   14 ar   
    24   13   39 1    
    25   14   15 ar   
    26   14   40 1    
    27   15   41 1    
    28   16   17 ar   
    29   16   42 1    
    30   17   18 ar   
    31   17   43 1    
    32   18   19 ar   
    33   19   44 1    
    34   20   21 1    
    35   20   45 1    
    36   21   22 1    
    37   21   46 1    
    38   21   47 1    
    39   22   33 ar   
    40   22   23 ar   
    41   23   24 1    
    42   23   25 ar   
    43   25   26 ar   
    44   25   48 1    
    45   26   27 1    
    46   26   32 ar   
    47   27   28 1    
    48   27   49 1    
    49   28   29 1    
    50   28   30 2    
    51   28   31 2    
    52   29   50 1    
    53   29   51 1    
    54   29   52 1    
    55   32   33 ar   
    56   32   53 1    
    57   33   54 1    
@<TRIPOS>SUBSTRUCTURE
     1 UNK         1 GROUP             0       ****    0 ROOT    
