/home/yujie/leadopt/data/result/selection/sEH/lig_11j.sdf:1
                    3D
 Schrodinger Suite 2020-3.
 59 63  0  0  1  0            999 V2000
   -1.3269  -15.3329   25.6682 O   0  0  0  0  0  0
   -0.9628  -14.9154   26.7707 C   0  0  0  0  0  0
    0.1866  -13.9386   26.8987 C   0  0  0  0  0  0
    1.1633  -13.8778   25.8972 C   0  0  0  0  0  0
    2.2299  -12.9792   25.9367 C   0  0  0  0  0  0
    2.2920  -12.1050   27.0291 C   0  0  0  0  0  0
    3.2029  -11.1088   27.3559 N   0  0  0  0  0  0
    4.4198  -10.7770   26.6237 C   0  0  0  0  0  0
    5.5700  -11.7198   27.0351 C   0  0  0  0  0  0
    6.9484  -11.3691   26.4616 C   0  0  0  0  0  0
    7.5207  -11.2833   27.8348 O   0  0  0  0  0  0
    6.1668  -11.4696   28.4275 C   0  0  0  0  0  0
    2.8292  -10.5346   28.5496 C   0  0  0  0  0  0
    1.6741  -11.1230   29.0119 C   0  0  0  0  0  0
    1.3132  -12.1316   28.0658 C   0  0  0  0  0  0
    0.2653  -13.0563   27.9868 C   0  0  0  0  0  0
   -1.6056  -15.2638   27.8971 N   0  0  0  0  0  0
   -2.8238  -16.0743   27.9340 C   0  0  0  0  0  0
   -2.6666  -17.6060   27.9276 C   0  0  0  0  0  0
   -3.7642  -18.4397   27.6182 C   0  0  0  0  0  0
   -5.0860  -17.8696   27.0830 C   0  0  0  0  0  0
   -4.8868  -17.3287   25.8795 F   0  0  0  0  0  0
   -6.0270  -18.8023   26.9545 F   0  0  0  0  0  0
   -5.5646  -16.9358   27.9001 F   0  0  0  0  0  0
   -3.6532  -19.8218   27.8348 C   0  0  0  0  0  0
   -2.4732  -20.3914   28.3092 C   0  0  0  0  0  0
   -2.4997  -21.7381   28.6971 N   0  0  0  0  0  0
   -1.3018  -22.9396   28.2017 S   0  0  0  0  0  0
   -1.6166  -23.0127   26.3432 C   0  0  0  0  0  0
   -1.4632  -24.3477   25.6562 C   0  0  0  0  0  0
   -2.8466  -23.7683   25.9004 C   0  0  0  0  0  0
    0.0378  -22.3993   28.4445 O   0  0  0  0  0  0
   -1.7239  -24.2032   28.8136 O   0  0  0  0  0  0
   -1.3542  -19.5783   28.4946 C   0  0  0  0  0  0
   -1.4506  -18.1987   28.2999 C   0  0  0  0  0  0
    1.1017  -14.5437   25.0481 H   0  0  0  0  0  0
    2.9666  -12.9595   25.1475 H   0  0  0  0  0  0
    4.6703   -9.7327   26.8165 H   0  0  0  0  0  0
    4.2134  -10.8495   25.5554 H   0  0  0  0  0  0
    5.2870  -12.7603   26.8676 H   0  0  0  0  0  0
    7.0456  -10.3893   25.9899 H   0  0  0  0  0  0
    7.4501  -12.1662   25.9111 H   0  0  0  0  0  0
    6.1777  -12.3283   29.0970 H   0  0  0  0  0  0
    5.8836  -10.5396   28.9238 H   0  0  0  0  0  0
    3.4361   -9.7491   28.9781 H   0  0  0  0  0  0
    1.1558  -10.8679   29.9228 H   0  0  0  0  0  0
   -0.4892  -13.0600   28.7602 H   0  0  0  0  0  0
   -1.2656  -14.9416   28.8078 H   0  0  0  0  0  0
   -3.3469  -15.8099   28.8552 H   0  0  0  0  0  0
   -3.4766  -15.7557   27.1211 H   0  0  0  0  0  0
   -4.5064  -20.4630   27.6674 H   0  0  0  0  0  0
   -3.4172  -22.1399   28.8082 H   0  0  0  0  0  0
   -1.3308  -22.0824   25.8563 H   0  0  0  0  0  0
   -1.0602  -24.3674   24.6435 H   0  0  0  0  0  0
   -1.1382  -25.2071   26.2446 H   0  0  0  0  0  0
   -3.4850  -24.2291   26.6556 H   0  0  0  0  0  0
   -3.4269  -23.3583   25.0748 H   0  0  0  0  0  0
   -0.4300  -19.9927   28.8733 H   0  0  0  0  0  0
   -0.5896  -17.5863   28.5268 H   0  0  0  0  0  0
  1  2  2  0  0  0
  2  3  1  0  0  0
  2 17  1  0  0  0
  3 16  1  0  0  0
  3  4  2  0  0  0
  4  5  1  0  0  0
  4 36  1  0  0  0
  5  6  2  0  0  0
  5 37  1  0  0  0
  6  7  1  0  0  0
  6 15  1  0  0  0
  7  8  1  0  0  0
  7 13  1  0  0  0
  8  9  1  0  0  0
  8 38  1  0  0  0
  8 39  1  0  0  0
  9 12  1  0  0  0
  9 10  1  0  0  0
  9 40  1  0  0  0
 10 11  1  0  0  0
 10 41  1  0  0  0
 10 42  1  0  0  0
 11 12  1  0  0  0
 12 43  1  0  0  0
 12 44  1  0  0  0
 13 14  2  0  0  0
 13 45  1  0  0  0
 14 15  1  0  0  0
 14 46  1  0  0  0
 15 16  2  0  0  0
 16 47  1  0  0  0
 17 18  1  0  0  0
 17 48  1  0  0  0
 18 19  1  0  0  0
 18 49  1  0  0  0
 18 50  1  0  0  0
 19 35  1  0  0  0
 19 20  2  0  0  0
 20 21  1  0  0  0
 20 25  1  0  0  0
 21 22  1  0  0  0
 21 23  1  0  0  0
 21 24  1  0  0  0
 25 26  2  0  0  0
 25 51  1  0  0  0
 26 27  1  0  0  0
 26 34  1  0  0  0
 27 28  1  0  0  0
 27 52  1  0  0  0
 28 29  1  0  0  0
 28 32  2  0  0  0
 28 33  2  0  0  0
 29 31  1  0  0  0
 29 30  1  0  0  0
 29 53  1  0  0  0
 30 31  1  0  0  0
 30 54  1  0  0  0
 30 55  1  0  0  0
 31 56  1  0  0  0
 31 57  1  0  0  0
 34 35  2  0  0  0
 34 58  1  0  0  0
 35 59  1  0  0  0
M  END
> <s_m_source_file>
/home/yujie/leadopt/data/result/selection/sEH/lig_11j.sdf

> <i_m_source_file_index>
1

> <i_lp_mmshare_version>
51139

> <i_f3d_flags>
0

> <s_epik_input>
W0NIMl0xW0NIMl1bQ0hdMVMoPU8pKD1PKVtOSF1jKFtjSF1bY0hdMilbY0hdYyhDKEYpKEYpRiljMltDSDJdW05IXUMoPU8pYyhbY0hdW2NIXTMpW2NIXWMoYzM0KVtjSF1bY0hdbjRbQ0gyXVtDSF01W0NIMl1PW0NIMl01

> <s_epik_cmdline>
J2VwaWtfcHl0aG9uJywgJy1waHQnLCAnMi4wJywgJy1waCcsICc3LjAnLCAnLXRuJywgJzgnLCAnLW1hJywgJzIwMCcsICctaW1hZScsICc8aW5maWxlLm1hZT4nLCAnLW9tYWUnLCAnPG91dGZpbGUubWFlPic=

> <r_epik_Ionization_Penalty>
  0.0750

> <r_epik_Ionization_Penalty_Charging>
  0.0000

> <r_epik_Ionization_Penalty_Neutral>
  0.0750

> <r_epik_State_Penalty>
  0.0661

> <r_epik_Charging_Adjusted_Penalty>
0.0660634

> <i_epik_Tot_Q>
0

> <i_epik_Tot_abs_Q>
0

> <s_lp_Force_Field>
OPLS3e

> <r_lp_Energy>
44.8347

> <b_lp_Chiralities_Consistent>
1

> <s_lp_Variant>
/home/yujie/leadopt/data/result/selection/sEH/lig_11j.sdf:1-1

> <s_i_glide_gridfile>
glide-grid_sEH

> <i_i_glide_lignum>
1

> <i_i_glide_rotatable_bonds>
10

> <r_i_docking_score>
-12.692239504395

> <r_i_glide_ligand_efficiency>
-0.362635414411286

> <r_i_glide_ligand_efficiency_sa>
-1.18620448555625

> <r_i_glide_ligand_efficiency_ln>
-2.7862282602935

> <r_i_glide_gscore>
-12.758302904395

> <r_i_glide_lipo>
-5.10511799343245

> <r_i_glide_hbond>
-0.72

> <r_i_glide_metal>
-0

> <r_i_glide_rewards>
-2.36228787661808

> <r_i_glide_evdw>
-58.1924171447754

> <r_i_glide_ecoul>
-14.5093746185303

> <r_i_glide_erotb>
0.715130015673835

> <r_i_glide_esite>
-0.2

> <r_i_glide_emodel>
-128.193379984569

> <r_i_glide_energy>
-72.7017917633057

> <r_i_glide_einternal>
7.2833046913147

> <i_i_glide_confnum>
187

> <i_i_glide_posenum>
280

> <r_i_glide_eff_state_penalty>
0.0660634

$$$$
