@<TRIPOS>MOLECULE
/home/yujie/leadopt/data/result/selection/sEH/lig_6i.sdf:1
49   52    1
SMALL
USER_CHARGES


@<TRIPOS>ATOM
      1 O1         -1.3290  -15.3329   25.7255 O.2       1 UNK         0.0000 
      2 C2         -0.9859  -14.7375   26.7479 C.2       1 UNK         0.0000 
      3 C3          0.1180  -13.7068   26.6973 C.ar      1 UNK         0.0000 
      4 C4          0.5778  -13.0229   27.8456 C.ar      1 UNK         0.0000 
      5 C5          1.5454  -12.0130   27.7415 C.ar      1 UNK         0.0000 
      6 C6          2.0544  -11.7044   26.4784 C.ar      1 UNK         0.0000 
      7 N7          2.9554  -10.7585   26.0200 N.pl3     1 UNK         0.0000 
      8 C8          3.8385   -9.8966   26.7990 C.3       1 UNK         0.0000 
      9 C9          5.2124  -10.5202   26.9416 C.ar      1 UNK         0.0000 
     10 C10         5.3602  -11.6355   27.7544 C.ar      1 UNK         0.0000 
     11 C11         6.5800  -12.2891   27.8016 C.ar      1 UNK         0.0000 
     12 Cl12        6.6735  -13.7329   28.6971 Cl        1 UNK         0.0000 
     13 C13         7.6811  -11.8117   27.0926 C.ar      1 UNK         0.0000 
     14 C14         7.5435  -10.6759   26.2967 C.ar      1 UNK         0.0000 
     15 C15         6.3040  -10.0419   26.2079 C.ar      1 UNK         0.0000 
     16 C16         3.1196  -10.8524   24.6758 C.ar      1 UNK         0.0000 
     17 N17         2.2829  -11.8313   24.2972 N.pl3     1 UNK         0.0000 
     18 O18         3.8710  -10.2075   23.9444 O.2       1 UNK         0.0000 
     19 C19         1.6204  -12.3692   25.3689 C.ar      1 UNK         0.0000 
     20 C20         0.6711  -13.3765   25.4483 C.ar      1 UNK         0.0000 
     21 N21        -1.6566  -14.8943   27.8972 N.am      1 UNK         0.0000 
     22 C22        -2.8256  -15.7570   28.0931 C.3       1 UNK         0.0000 
     23 C23        -2.5553  -17.2706   28.1075 C.ar      1 UNK         0.0000 
     24 C24        -3.5046  -18.2077   27.6343 C.ar      1 UNK         0.0000 
     25 C25        -4.8535  -17.7749   27.0422 C.3       1 UNK         0.0000 
     26 F26        -5.4942  -16.9810   27.8972 F         1 UNK         0.0000 
     27 F27        -4.6570  -17.1158   25.8994 F         1 UNK         0.0000 
     28 F28        -5.6564  -18.8084   26.7812 F         1 UNK         0.0000 
     29 C29        -3.2110  -19.5776   27.7228 C.ar      1 UNK         0.0000 
     30 C30        -2.0030  -20.0205   28.2535 C.ar      1 UNK         0.0000 
     31 C31        -1.0631  -19.0982   28.6972 C.ar      1 UNK         0.0000 
     32 C32        -1.3334  -17.7351   28.6175 C.ar      1 UNK         0.0000 
     33 H33         0.1766  -13.2463   28.8247 H         1 UNK         0.0000 
     34 H34         1.8671  -11.4848   28.6268 H         1 UNK         0.0000 
     35 H35         3.9177   -8.9329   26.3004 H         1 UNK         0.0000 
     36 H36         3.4133   -9.7083   27.7854 H         1 UNK         0.0000 
     37 H37         4.5167  -12.0305   28.3019 H         1 UNK         0.0000 
     38 H38         8.6267  -12.3313   27.1404 H         1 UNK         0.0000 
     39 H39         8.3844  -10.3052   25.7290 H         1 UNK         0.0000 
     40 H40         6.1873   -9.1895   25.5540 H         1 UNK         0.0000 
     41 H41         2.1910  -12.1329   23.3342 H         1 UNK         0.0000 
     42 H42         0.3486  -13.8745   24.5446 H         1 UNK         0.0000 
     43 H43        -1.2779  -14.5329   28.7755 H         1 UNK         0.0000 
     44 H44        -3.5689  -15.4841   27.3473 H         1 UNK         0.0000 
     45 H45        -3.2620  -15.4954   29.0591 H         1 UNK         0.0000 
     46 H46        -3.9180  -20.3176   27.3762 H         1 UNK         0.0000 
     47 H47        -1.7921  -21.0782   28.3150 H         1 UNK         0.0000 
     48 H48        -0.1290  -19.4426   29.1168 H         1 UNK         0.0000 
     49 H49        -0.5953  -17.0381   28.9894 H         1 UNK         0.0000 
@<TRIPOS>BOND
     1    1    2 2    
     2    2    3 1    
     3    2   21 am   BACKBONE|DICT|INTERRES
     4    3   20 ar   
     5    3    4 ar   
     6    4    5 ar   
     7    4   33 1    
     8    5    6 ar   
     9    5   34 1    
    10    6    7 ar   
    11    6   19 ar   
    12    7    8 1    
    13    7   16 ar   
    14    8    9 1    
    15    8   35 1    
    16    8   36 1    
    17    9   15 ar   
    18    9   10 ar   
    19   10   11 ar   
    20   10   37 1    
    21   11   12 1    
    22   11   13 ar   
    23   13   14 ar   
    24   13   38 1    
    25   14   15 ar   
    26   14   39 1    
    27   15   40 1    
    28   16   17 ar   
    29   16   18 2    
    30   17   19 ar   
    31   17   41 1    
    32   19   20 ar   
    33   20   42 1    
    34   21   22 1    
    35   21   43 1    
    36   22   23 1    
    37   22   44 1    
    38   22   45 1    
    39   23   32 ar   
    40   23   24 ar   
    41   24   25 1    
    42   24   29 ar   
    43   25   26 1    
    44   25   27 1    
    45   25   28 1    
    46   29   30 ar   
    47   29   46 1    
    48   30   31 ar   
    49   30   47 1    
    50   31   32 ar   
    51   31   48 1    
    52   32   49 1    
@<TRIPOS>SUBSTRUCTURE
     1 UNK         1 GROUP             0       ****    0 ROOT    
