@<TRIPOS>MOLECULE
/home/yujie/leadopt/data/result/selection/sEH/lig_6b.sdf:1
55   58    1
SMALL
USER_CHARGES


@<TRIPOS>ATOM
      1 O1         -1.5350  -15.7333   25.8398 O.2       1 UNK         0.0000 
      2 C2         -1.3197  -15.0553   26.8366 C.2       1 UNK         0.0000 
      3 C3         -0.1413  -14.1180   26.8814 C.ar      1 UNK         0.0000 
      4 C4          0.8525  -14.2019   25.8859 C.ar      1 UNK         0.0000 
      5 C5          1.9609  -13.3561   25.8934 C.ar      1 UNK         0.0000 
      6 C6          2.0744  -12.4372   26.9275 C.ar      1 UNK         0.0000 
      7 N7          3.0577  -11.5356   27.2437 N.pl3     1 UNK         0.0000 
      8 C8          4.2926  -11.2945   26.4946 C.3       1 UNK         0.0000 
      9 C9          5.3716  -12.3899   26.7001 C.3       1 UNK         0.0000 
     10 C10         6.5509  -12.2239   25.7161 C.3       1 UNK         0.0000 
     11 C11         7.3740  -10.9516   26.0173 C.3       1 UNK         0.0000 
     12 C12         7.8716  -10.9422   27.4778 C.3       1 UNK         0.0000 
     13 C13         6.7433  -11.1931   28.4994 C.3       1 UNK         0.0000 
     14 C14         5.9350  -12.4586   28.1417 C.3       1 UNK         0.0000 
     15 C15         2.7770  -10.9248   28.4222 C.ar      1 UNK         0.0000 
     16 N16         1.5687  -11.4011   28.7887 N.pl3     1 UNK         0.0000 
     17 O17         3.4705  -10.1330   29.0412 O.2       1 UNK         0.0000 
     18 C18         1.1265  -12.3472   27.9058 C.ar      1 UNK         0.0000 
     19 C19        -0.0022  -13.1593   27.8989 C.ar      1 UNK         0.0000 
     20 N20        -2.1274  -15.1097   27.9014 N.am      1 UNK         0.0000 
     21 C21        -3.2656  -16.0231   28.0314 C.3       1 UNK         0.0000 
     22 C22        -2.9128  -17.5223   28.0151 C.ar      1 UNK         0.0000 
     23 C23        -3.7566  -18.4900   27.4233 C.ar      1 UNK         0.0000 
     24 C24        -5.0502  -18.1013   26.6870 C.3       1 UNK         0.0000 
     25 F25        -5.7286  -19.1610   26.2409 F         1 UNK         0.0000 
     26 F26        -5.8580  -17.4218   27.4977 F         1 UNK         0.0000 
     27 F27        -4.7625  -17.3375   25.6324 F         1 UNK         0.0000 
     28 C28        -3.3881  -19.8436   27.4971 C.ar      1 UNK         0.0000 
     29 C29        -2.1897  -20.2336   28.0924 C.ar      1 UNK         0.0000 
     30 C30        -1.3362  -19.2759   28.6272 C.ar      1 UNK         0.0000 
     31 C31        -1.6986  -17.9332   28.5888 C.ar      1 UNK         0.0000 
     32 H32         0.7917  -14.9324   25.0970 H         1 UNK         0.0000 
     33 H33         2.7147  -13.4439   25.1231 H         1 UNK         0.0000 
     34 H34         4.0270  -11.2454   25.4372 H         1 UNK         0.0000 
     35 H35         4.6885  -10.3086   26.7432 H         1 UNK         0.0000 
     36 H36         4.9194  -13.3597   26.4784 H         1 UNK         0.0000 
     37 H37         7.2034  -13.0965   25.7639 H         1 UNK         0.0000 
     38 H38         6.1797  -12.1721   24.6910 H         1 UNK         0.0000 
     39 H39         8.2234  -10.8901   25.3367 H         1 UNK         0.0000 
     40 H40         6.7741  -10.0604   25.8272 H         1 UNK         0.0000 
     41 H41         8.6230  -11.7251   27.5905 H         1 UNK         0.0000 
     42 H42         8.3698   -9.9989   27.6972 H         1 UNK         0.0000 
     43 H43         7.1621  -11.2927   29.4986 H         1 UNK         0.0000 
     44 H44         6.0894  -10.3211   28.5429 H         1 UNK         0.0000 
     45 H45         5.1265  -12.5658   28.8645 H         1 UNK         0.0000 
     46 H46         6.5681  -13.3394   28.2573 H         1 UNK         0.0000 
     47 H47         1.0917  -11.1307   29.6353 H         1 UNK         0.0000 
     48 H48        -0.7407  -13.0588   28.6859 H         1 UNK         0.0000 
     49 H49        -1.8211  -14.6645   28.7686 H         1 UNK         0.0000 
     50 H50        -3.9803  -15.7499   27.2551 H         1 UNK         0.0000 
     51 H51        -3.7592  -15.8075   28.9822 H         1 UNK         0.0000 
     52 H52        -4.0151  -20.6123   27.0680 H         1 UNK         0.0000 
     53 H53        -1.9146  -21.2801   28.1300 H         1 UNK         0.0000 
     54 H54        -0.4040  -19.5705   29.0954 H         1 UNK         0.0000 
     55 H55        -1.0327  -17.2077   29.0373 H         1 UNK         0.0000 
@<TRIPOS>BOND
     1    1    2 2    
     2    2    3 1    
     3    2   20 am   BACKBONE|DICT|INTERRES
     4    3   19 ar   
     5    3    4 ar   
     6    4    5 ar   
     7    4   32 1    
     8    5    6 ar   
     9    5   33 1    
    10    6    7 ar   
    11    6   18 ar   
    12    7    8 1    
    13    7   15 ar   
    14    8    9 1    
    15    8   34 1    
    16    8   35 1    
    17    9   14 1    
    18    9   10 1    
    19    9   36 1    
    20   10   11 1    
    21   10   37 1    
    22   10   38 1    
    23   11   12 1    
    24   11   39 1    
    25   11   40 1    
    26   12   13 1    
    27   12   41 1    
    28   12   42 1    
    29   13   14 1    
    30   13   43 1    
    31   13   44 1    
    32   14   45 1    
    33   14   46 1    
    34   15   16 ar   
    35   15   17 2    
    36   16   18 ar   
    37   16   47 1    
    38   18   19 ar   
    39   19   48 1    
    40   20   21 1    
    41   20   49 1    
    42   21   22 1    
    43   21   50 1    
    44   21   51 1    
    45   22   31 ar   
    46   22   23 ar   
    47   23   24 1    
    48   23   28 ar   
    49   24   25 1    
    50   24   26 1    
    51   24   27 1    
    52   28   29 ar   
    53   28   52 1    
    54   29   30 ar   
    55   29   53 1    
    56   30   31 ar   
    57   30   54 1    
    58   31   55 1    
@<TRIPOS>SUBSTRUCTURE
     1 UNK         1 GROUP             0       ****    0 ROOT    
