/home/yujie/leadopt/data/result/selection/sEH/lig_8c.sdf:1
                    3D
 Schrodinger Suite 2020-3.
 60 63  0  0  1  0            999 V2000
   -1.3290  -15.3329   25.7510 O   0  0  0  0  0  0
   -1.0692  -14.7336   26.7956 C   0  0  0  0  0  0
    0.0500  -13.7153   26.8460 C   0  0  0  0  0  0
    0.7071  -13.3676   25.6582 C   0  0  0  0  0  0
    1.7166  -12.4113   25.6046 C   0  0  0  0  0  0
    2.0778  -11.7968   26.8079 C   0  0  0  0  0  0
    3.0207  -10.8188   27.0819 N   0  0  0  0  0  0
    3.9126  -10.1933   26.1134 C   0  0  0  0  0  0
    5.0233  -11.1010   25.6080 C   0  0  0  0  0  0
    6.0919  -11.4289   26.4491 C   0  0  0  0  0  0
    7.1308  -12.2327   25.9827 C   0  0  0  0  0  0
    8.1679  -12.5329   26.7956 F   0  0  0  0  0  0
    7.1020  -12.7244   24.6778 C   0  0  0  0  0  0
    6.0366  -12.4052   23.8350 C   0  0  0  0  0  0
    5.0018  -11.5910   24.2970 C   0  0  0  0  0  0
    3.0201  -10.5645   28.4351 C   0  0  0  0  0  0
    2.0624  -11.3329   29.0592 C   0  0  0  0  0  0
    1.4466  -12.1304   28.0434 C   0  0  0  0  0  0
    0.4291  -13.0930   28.0475 C   0  0  0  0  0  0
   -1.8194  -14.8956   27.8972 N   0  0  0  0  0  0
   -2.9494  -15.8204   28.0326 C   0  0  0  0  0  0
   -2.5760  -17.3105   28.0551 C   0  0  0  0  0  0
   -3.4113  -18.3164   27.5155 C   0  0  0  0  0  0
   -4.7572  -17.9903   26.8508 C   0  0  0  0  0  0
   -5.5388  -17.3328   27.7053 F   0  0  0  0  0  0
   -4.5653  -17.2363   25.7678 F   0  0  0  0  0  0
   -5.4173  -19.0838   26.4647 F   0  0  0  0  0  0
   -3.0027  -19.6578   27.6031 C   0  0  0  0  0  0
   -1.7871  -20.0101   28.1953 C   0  0  0  0  0  0
   -1.3290  -21.3293   28.2973 N   0  0  0  0  0  0
   -2.3661  -22.7588   28.3323 S   0  0  0  0  0  0
   -2.5698  -23.1653   26.4977 C   0  0  0  0  0  0
   -3.2896  -24.5095   26.3182 C   0  0  0  0  0  0
   -3.6631  -22.3751   28.9007 O   0  0  0  0  0  0
   -1.5724  -23.8213   28.9566 O   0  0  0  0  0  0
   -0.9660  -19.0082   28.6972 C   0  0  0  0  0  0
   -1.3528  -17.6770   28.6305 C   0  0  0  0  0  0
    0.4280  -13.8408   24.7270 H   0  0  0  0  0  0
    2.1886  -12.1612   24.6664 H   0  0  0  0  0  0
    3.3079   -9.8171   25.2862 H   0  0  0  0  0  0
    4.3692   -9.3238   26.5773 H   0  0  0  0  0  0
    6.1249  -11.0552   27.4622 H   0  0  0  0  0  0
    7.9079  -13.3484   24.3212 H   0  0  0  0  0  0
    6.0163  -12.7809   22.8223 H   0  0  0  0  0  0
    4.1892  -11.3396   23.6300 H   0  0  0  0  0  0
    3.7089   -9.8395   28.8454 H   0  0  0  0  0  0
    1.8415  -11.3269   30.1166 H   0  0  0  0  0  0
   -0.0519  -13.3329   28.9841 H   0  0  0  0  0  0
   -1.4770  -14.5329   28.7892 H   0  0  0  0  0  0
   -3.6794  -15.5926   27.2593 H   0  0  0  0  0  0
   -3.4448  -15.5928   28.9783 H   0  0  0  0  0  0
   -3.6366  -20.4337   27.2038 H   0  0  0  0  0  0
   -0.3923  -21.4653   28.6491 H   0  0  0  0  0  0
   -1.5686  -23.1936   26.0690 H   0  0  0  0  0  0
   -3.1120  -22.3475   26.0259 H   0  0  0  0  0  0
   -3.3290  -24.7891   25.2651 H   0  0  0  0  0  0
   -4.3118  -24.4657   26.6969 H   0  0  0  0  0  0
   -2.7725  -25.3108   26.8479 H   0  0  0  0  0  0
   -0.0343  -19.2598   29.1807 H   0  0  0  0  0  0
   -0.7009  -16.9270   29.0577 H   0  0  0  0  0  0
  1  2  2  0  0  0
  2  3  1  0  0  0
  2 20  1  0  0  0
  3 19  1  0  0  0
  3  4  2  0  0  0
  4  5  1  0  0  0
  4 38  1  0  0  0
  5  6  2  0  0  0
  5 39  1  0  0  0
  6  7  1  0  0  0
  6 18  1  0  0  0
  7  8  1  0  0  0
  7 16  1  0  0  0
  8  9  1  0  0  0
  8 40  1  0  0  0
  8 41  1  0  0  0
  9 15  1  0  0  0
  9 10  2  0  0  0
 10 11  1  0  0  0
 10 42  1  0  0  0
 11 12  1  0  0  0
 11 13  2  0  0  0
 13 14  1  0  0  0
 13 43  1  0  0  0
 14 15  2  0  0  0
 14 44  1  0  0  0
 15 45  1  0  0  0
 16 17  2  0  0  0
 16 46  1  0  0  0
 17 18  1  0  0  0
 17 47  1  0  0  0
 18 19  2  0  0  0
 19 48  1  0  0  0
 20 21  1  0  0  0
 20 49  1  0  0  0
 21 22  1  0  0  0
 21 50  1  0  0  0
 21 51  1  0  0  0
 22 37  1  0  0  0
 22 23  2  0  0  0
 23 24  1  0  0  0
 23 28  1  0  0  0
 24 25  1  0  0  0
 24 26  1  0  0  0
 24 27  1  0  0  0
 28 29  2  0  0  0
 28 52  1  0  0  0
 29 30  1  0  0  0
 29 36  1  0  0  0
 30 31  1  0  0  0
 30 53  1  0  0  0
 31 32  1  0  0  0
 31 34  2  0  0  0
 31 35  2  0  0  0
 32 33  1  0  0  0
 32 54  1  0  0  0
 32 55  1  0  0  0
 33 56  1  0  0  0
 33 57  1  0  0  0
 33 58  1  0  0  0
 36 37  2  0  0  0
 36 59  1  0  0  0
 37 60  1  0  0  0
M  END
> <s_m_source_file>
/home/yujie/leadopt/data/result/selection/sEH/lig_8c.sdf

> <i_m_source_file_index>
1

> <i_lp_mmshare_version>
51139

> <i_f3d_flags>
0

> <s_epik_input>
W0NIM11bQ0gyXVMoPU8pKD1PKVtOSF1jKFtjSF1bY0hdMSlbY0hdYyhDKEYpKEYpRiljMVtDSDJdW05IXUMoPU8pYyhbY0hdW2NIXTIpW2NIXWMoYzIzKVtjSF1bY0hdbjNbQ0gyXWM0W2NIXWMoRilbY0hdW2NIXVtjSF00

> <s_epik_cmdline>
J2VwaWtfcHl0aG9uJywgJy1waHQnLCAnMi4wJywgJy1waCcsICc3LjAnLCAnLXRuJywgJzgnLCAnLW1hJywgJzIwMCcsICctaW1hZScsICc8aW5maWxlLm1hZT4nLCAnLW9tYWUnLCAnPG91dGZpbGUubWFlPic=

> <r_epik_Ionization_Penalty>
  0.0999

> <r_epik_Ionization_Penalty_Charging>
  0.0000

> <r_epik_Ionization_Penalty_Neutral>
  0.0999

> <r_epik_State_Penalty>
  0.0900

> <r_epik_Charging_Adjusted_Penalty>
0.0899504

> <i_epik_Tot_Q>
0

> <i_epik_Tot_abs_Q>
0

> <s_lp_Force_Field>
OPLS3e

> <r_lp_Energy>
37.4909

> <b_lp_Chiralities_Consistent>
1

> <s_lp_Variant>
/home/yujie/leadopt/data/result/selection/sEH/lig_8c.sdf:1-1

> <s_i_glide_gridfile>
glide-grid_sEH

> <i_i_glide_lignum>
1

> <i_i_glide_rotatable_bonds>
10

> <r_i_docking_score>
-12.918439355913

> <r_i_glide_ligand_efficiency>
-0.349147009619271

> <r_i_glide_ligand_efficiency_sa>
-1.16343529348982

> <r_i_glide_ligand_efficiency_ln>
-2.80170664511021

> <r_i_glide_gscore>
-13.008389755913

> <r_i_glide_lipo>
-4.79598199003287

> <r_i_glide_hbond>
-0.72

> <r_i_glide_metal>
-0

> <r_i_glide_rewards>
-2.69922867797335

> <r_i_glide_evdw>
-57.9939117431641

> <r_i_glide_ecoul>
-15.1555681228638

> <r_i_glide_erotb>
0.57985171768097

> <r_i_glide_esite>
-0.2

> <r_i_glide_emodel>
-131.834789532667

> <r_i_glide_energy>
-73.1494798660278

> <r_i_glide_einternal>
6.15462255477905

> <i_i_glide_confnum>
171

> <i_i_glide_posenum>
72

> <r_i_glide_eff_state_penalty>
0.0899504

$$$$
