/home/yujie/leadopt/data/result/selection/sEH/lig_9c.sdf:1
                    3D
 Schrodinger Suite 2020-3.
 54 57  0  0  1  0            999 V2000
   -1.3292  -15.7320   25.8841 O   0  0  0  0  0  0
   -1.1657  -15.0224   26.8668 C   0  0  0  0  0  0
   -0.0868  -13.9560   26.8845 C   0  0  0  0  0  0
    0.6763  -13.7259   25.7315 C   0  0  0  0  0  0
    1.6311  -12.7137   25.6440 C   0  0  0  0  0  0
    1.8170  -11.9096   26.7745 C   0  0  0  0  0  0
    2.6352  -10.8097   26.9927 N   0  0  0  0  0  0
    3.5835  -10.2408   26.0445 C   0  0  0  0  0  0
    4.9480  -10.9067   26.1122 C   0  0  0  0  0  0
    5.8033  -10.6224   27.1799 C   0  0  0  0  0  0
    7.0527  -11.2291   27.2627 C   0  0  0  0  0  0
    7.8699  -10.9315   28.2958 F   0  0  0  0  0  0
    7.4565  -12.1321   26.2792 C   0  0  0  0  0  0
    6.6064  -12.4265   25.2125 C   0  0  0  0  0  0
    5.3542  -11.8130   25.1274 C   0  0  0  0  0  0
    2.4865  -10.3936   28.2964 C   0  0  0  0  0  0
    1.5396  -11.1667   28.9295 C   0  0  0  0  0  0
    1.0878  -12.1332   27.9778 C   0  0  0  0  0  0
    0.1410  -13.1617   28.0174 C   0  0  0  0  0  0
   -2.0016  -15.1143   27.9067 N   0  0  0  0  0  0
   -3.2142  -15.9400   27.9471 C   0  0  0  0  0  0
   -3.0669  -17.4688   27.9781 C   0  0  0  0  0  0
   -4.2027  -18.2776   27.8061 C   0  0  0  0  0  0
   -5.7640  -17.5970   27.4963 Cl  0  0  0  0  0  0
   -4.1019  -19.6646   27.9058 C   0  0  0  0  0  0
   -2.8825  -20.2787   28.1935 C   0  0  0  0  0  0
   -2.9004  -21.6613   28.4372 N   0  0  0  0  0  0
   -1.5716  -22.7891   28.1225 S   0  0  0  0  0  0
   -1.4689  -22.7612   26.2512 C   0  0  0  0  0  0
   -2.0660  -24.1051   28.5328 O   0  0  0  0  0  0
   -0.3365  -22.2444   28.6925 O   0  0  0  0  0  0
   -1.7377  -19.4827   28.3004 C   0  0  0  0  0  0
   -1.8290  -18.0929   28.1983 C   0  0  0  0  0  0
    0.5225  -14.3320   24.8486 H   0  0  0  0  0  0
    2.1840  -12.5529   24.7305 H   0  0  0  0  0  0
    3.1635  -10.3141   25.0396 H   0  0  0  0  0  0
    3.6770   -9.1726   26.2402 H   0  0  0  0  0  0
    5.5067   -9.9313   27.9538 H   0  0  0  0  0  0
    8.4273  -12.5995   26.3439 H   0  0  0  0  0  0
    6.9154  -13.1276   24.4508 H   0  0  0  0  0  0
    4.7017  -12.0474   24.2995 H   0  0  0  0  0  0
    3.0714   -9.5625   28.6638 H   0  0  0  0  0  0
    1.2099  -11.0469   29.9495 H   0  0  0  0  0  0
   -0.4217  -13.3060   28.9235 H   0  0  0  0  0  0
   -1.7277  -14.6933   28.7952 H   0  0  0  0  0  0
   -3.8446  -15.6720   27.0983 H   0  0  0  0  0  0
   -3.7724  -15.6460   28.8378 H   0  0  0  0  0  0
   -4.9950  -20.2630   27.8033 H   0  0  0  0  0  0
   -3.8074  -22.0993   28.4737 H   0  0  0  0  0  0
   -0.6273  -23.3780   25.9398 H   0  0  0  0  0  0
   -1.3292  -21.7335   25.9252 H   0  0  0  0  0  0
   -2.3987  -23.1597   25.8477 H   0  0  0  0  0  0
   -0.7738  -19.9110   28.5281 H   0  0  0  0  0  0
   -0.9317  -17.5058   28.3347 H   0  0  0  0  0  0
  1  2  2  0  0  0
  2  3  1  0  0  0
  2 20  1  0  0  0
  3 19  1  0  0  0
  3  4  2  0  0  0
  4  5  1  0  0  0
  4 34  1  0  0  0
  5  6  2  0  0  0
  5 35  1  0  0  0
  6  7  1  0  0  0
  6 18  1  0  0  0
  7  8  1  0  0  0
  7 16  1  0  0  0
  8  9  1  0  0  0
  8 36  1  0  0  0
  8 37  1  0  0  0
  9 15  1  0  0  0
  9 10  2  0  0  0
 10 11  1  0  0  0
 10 38  1  0  0  0
 11 12  1  0  0  0
 11 13  2  0  0  0
 13 14  1  0  0  0
 13 39  1  0  0  0
 14 15  2  0  0  0
 14 40  1  0  0  0
 15 41  1  0  0  0
 16 17  2  0  0  0
 16 42  1  0  0  0
 17 18  1  0  0  0
 17 43  1  0  0  0
 18 19  2  0  0  0
 19 44  1  0  0  0
 20 21  1  0  0  0
 20 45  1  0  0  0
 21 22  1  0  0  0
 21 46  1  0  0  0
 21 47  1  0  0  0
 22 33  1  0  0  0
 22 23  2  0  0  0
 23 24  1  0  0  0
 23 25  1  0  0  0
 25 26  2  0  0  0
 25 48  1  0  0  0
 26 27  1  0  0  0
 26 32  1  0  0  0
 27 28  1  0  0  0
 27 49  1  0  0  0
 28 29  1  0  0  0
 28 30  2  0  0  0
 28 31  2  0  0  0
 29 50  1  0  0  0
 29 51  1  0  0  0
 29 52  1  0  0  0
 32 33  2  0  0  0
 32 53  1  0  0  0
 33 54  1  0  0  0
M  END
> <s_m_source_file>
/home/yujie/leadopt/data/result/selection/sEH/lig_9c.sdf

> <i_m_source_file_index>
1

> <i_lp_mmshare_version>
51139

> <i_f3d_flags>
0

> <s_epik_input>
W0NIM11TKD1PKSg9TylbTkhdYyhbY0hdW2NIXTEpW2NIXWMoQ2wpYzFbQ0gyXVtOSF1DKD1PKWMoW2NIXVtjSF0yKVtjSF1jKGMyMylbY0hdW2NIXW4zW0NIMl1jNFtjSF1jKEYpW2NIXVtjSF1bY0hdNA==

> <s_epik_cmdline>
J2VwaWtfcHl0aG9uJywgJy1waHQnLCAnMi4wJywgJy1waCcsICc3LjAnLCAnLXRuJywgJzgnLCAnLW1hJywgJzIwMCcsICctaW1hZScsICc8aW5maWxlLm1hZT4nLCAnLW9tYWUnLCAnPG91dGZpbGUubWFlPic=

> <r_epik_Ionization_Penalty>
  0.0679

> <r_epik_Ionization_Penalty_Charging>
  0.0000

> <r_epik_Ionization_Penalty_Neutral>
  0.0679

> <r_epik_State_Penalty>
  0.0593

> <r_epik_Charging_Adjusted_Penalty>
0.0593446

> <i_epik_Tot_Q>
0

> <i_epik_Tot_abs_Q>
0

> <s_lp_Force_Field>
OPLS3e

> <r_lp_Energy>
32.0639

> <b_lp_Chiralities_Consistent>
1

> <s_lp_Variant>
/home/yujie/leadopt/data/result/selection/sEH/lig_9c.sdf:1-1

> <s_i_glide_gridfile>
glide-grid_sEH

> <i_i_glide_lignum>
1

> <i_i_glide_rotatable_bonds>
8

> <r_i_docking_score>
-11.648034036985

> <r_i_glide_ligand_efficiency>
-0.352970728393485

> <r_i_glide_ligand_efficiency_sa>
-1.13216572748619

> <r_i_glide_ligand_efficiency_ln>
-2.59046245953296

> <r_i_glide_gscore>
-11.707378636985

> <r_i_glide_lipo>
-4.85758979295479

> <r_i_glide_hbond>
-0.632450280221941

> <r_i_glide_metal>
-0

> <r_i_glide_rewards>
-1.96710684800732

> <r_i_glide_evdw>
-59.3328971862793

> <r_i_glide_ecoul>
-11.2391023635864

> <r_i_glide_erotb>
0.602278498050971

> <r_i_glide_esite>
-0.2

> <r_i_glide_emodel>
-120.77703647568

> <r_i_glide_energy>
-70.5719995498657

> <r_i_glide_einternal>
5.42818880081177

> <i_i_glide_confnum>
66

> <i_i_glide_posenum>
191

> <r_i_glide_eff_state_penalty>
0.0593446

$$$$
