/home/yujie/leadopt/data/result/selection/sEH/lig_7f.sdf:1
                    3D
 Schrodinger Suite 2020-3.
 52 55  0  0  1  0            999 V2000
   -1.3249  -15.3313   25.7253 O   0  0  0  0  0  0
   -1.0006  -14.8086   26.7968 C   0  0  0  0  0  0
    0.2346  -13.9469   26.9377 C   0  0  0  0  0  0
    1.3450  -14.2049   26.1264 C   0  0  0  0  0  0
    2.5145  -13.4443   26.1884 C   0  0  0  0  0  0
    2.5358  -12.3750   27.0907 C   0  0  0  0  0  0
    3.5034  -11.4356   27.4189 N   0  0  0  0  0  0
    4.8901  -11.3439   26.9609 C   0  0  0  0  0  0
    5.0530  -11.4103   25.4465 C   0  0  0  0  0  0
    5.7747  -12.4580   24.8610 C   0  0  0  0  0  0
    5.8857  -12.5469   23.4705 C   0  0  0  0  0  0
    6.5677  -13.5714   22.9086 F   0  0  0  0  0  0
    5.2904  -11.5830   22.6603 C   0  0  0  0  0  0
    4.5832  -10.5300   23.2396 C   0  0  0  0  0  0
    4.4636  -10.4414   24.6287 C   0  0  0  0  0  0
    3.0656  -10.5826   28.3677 N   0  0  0  0  0  0
    1.8453  -10.9393   28.6683 C   0  0  0  0  0  0
    1.4335  -12.0857   27.9282 C   0  0  0  0  0  0
    0.2870  -12.8927   27.8680 C   0  0  0  0  0  0
   -1.7381  -14.9628   27.8957 N   0  0  0  0  0  0
   -2.8916  -15.8481   28.0375 C   0  0  0  0  0  0
   -2.5772  -17.3510   28.1074 C   0  0  0  0  0  0
   -3.5097  -18.3189   27.6744 C   0  0  0  0  0  0
   -4.8790  -17.9200   27.1116 C   0  0  0  0  0  0
   -5.7061  -18.9581   26.9721 F   0  0  0  0  0  0
   -5.4850  -17.0465   27.9143 F   0  0  0  0  0  0
   -4.6967  -17.3601   25.9131 F   0  0  0  0  0  0
   -3.1798  -19.6781   27.7726 C   0  0  0  0  0  0
   -1.9438  -20.0970   28.2836 C   0  0  0  0  0  0
   -1.5622  -21.4156   28.4260 O   0  0  0  0  0  0
   -2.4707  -22.4460   28.0557 C   0  0  0  0  0  0
   -1.0305  -19.1311   28.6972 C   0  0  0  0  0  0
   -1.3372  -17.7767   28.6046 C   0  0  0  0  0  0
    1.3126  -15.0381   25.4395 H   0  0  0  0  0  0
    3.3587  -13.6788   25.5575 H   0  0  0  0  0  0
    5.3253  -10.4055   27.3091 H   0  0  0  0  0  0
    5.4484  -12.1472   27.4482 H   0  0  0  0  0  0
    6.2378  -13.2207   25.4725 H   0  0  0  0  0  0
    5.3692  -11.6608   21.5876 H   0  0  0  0  0  0
    4.1214   -9.7870   22.6130 H   0  0  0  0  0  0
    3.9040   -9.6285   25.0725 H   0  0  0  0  0  0
    1.2696  -10.4000   29.4006 H   0  0  0  0  0  0
   -0.5562  -12.6693   28.5080 H   0  0  0  0  0  0
   -1.3841  -14.5956   28.7841 H   0  0  0  0  0  0
   -3.5833  -15.6293   27.2256 H   0  0  0  0  0  0
   -3.3995  -15.5704   28.9621 H   0  0  0  0  0  0
   -3.8986  -20.4137   27.4435 H   0  0  0  0  0  0
   -2.0179  -23.4167   28.2530 H   0  0  0  0  0  0
   -2.7167  -22.4032   26.9949 H   0  0  0  0  0  0
   -3.3901  -22.3924   28.6380 H   0  0  0  0  0  0
   -0.0944  -19.4386   29.1385 H   0  0  0  0  0  0
   -0.6072  -17.0599   28.9536 H   0  0  0  0  0  0
  1  2  2  0  0  0
  2  3  1  0  0  0
  2 20  1  0  0  0
  3 19  1  0  0  0
  3  4  2  0  0  0
  4  5  1  0  0  0
  4 34  1  0  0  0
  5  6  2  0  0  0
  5 35  1  0  0  0
  6  7  1  0  0  0
  6 18  1  0  0  0
  7  8  1  0  0  0
  7 16  1  0  0  0
  8  9  1  0  0  0
  8 36  1  0  0  0
  8 37  1  0  0  0
  9 15  1  0  0  0
  9 10  2  0  0  0
 10 11  1  0  0  0
 10 38  1  0  0  0
 11 12  1  0  0  0
 11 13  2  0  0  0
 13 14  1  0  0  0
 13 39  1  0  0  0
 14 15  2  0  0  0
 14 40  1  0  0  0
 15 41  1  0  0  0
 16 17  2  0  0  0
 17 18  1  0  0  0
 17 42  1  0  0  0
 18 19  2  0  0  0
 19 43  1  0  0  0
 20 21  1  0  0  0
 20 44  1  0  0  0
 21 22  1  0  0  0
 21 45  1  0  0  0
 21 46  1  0  0  0
 22 33  1  0  0  0
 22 23  2  0  0  0
 23 24  1  0  0  0
 23 28  1  0  0  0
 24 25  1  0  0  0
 24 26  1  0  0  0
 24 27  1  0  0  0
 28 29  2  0  0  0
 28 47  1  0  0  0
 29 30  1  0  0  0
 29 32  1  0  0  0
 30 31  1  0  0  0
 31 48  1  0  0  0
 31 49  1  0  0  0
 31 50  1  0  0  0
 32 33  2  0  0  0
 32 51  1  0  0  0
 33 52  1  0  0  0
M  END
> <s_m_source_file>
/home/yujie/leadopt/data/result/selection/sEH/lig_7f.sdf

> <i_m_source_file_index>
1

> <i_lp_mmshare_version>
51139

> <i_f3d_flags>
0

> <s_epik_input>
W0NIM11PYyhbY0hdW2NIXTEpW2NIXWMoQyhGKShGKUYpYzFbQ0gyXVtOSF1DKD1PKWMoW2NIXVtjSF0yKVtjSF1jKGMyMylbY0hdbm4zW0NIMl1jNFtjSF1jKEYpW2NIXVtjSF1bY0hdNA==

> <s_epik_cmdline>
J2VwaWtfcHl0aG9uJywgJy1waHQnLCAnMi4wJywgJy1waCcsICc3LjAnLCAnLXRuJywgJzgnLCAnLW1hJywgJzIwMCcsICctaW1hZScsICc8aW5maWxlLm1hZT4nLCAnLW9tYWUnLCAnPG91dGZpbGUubWFlPic=

> <r_lp_tautomer_probability>
1

> <r_epik_Ionization_Penalty>
  0.0000

> <r_epik_Ionization_Penalty_Charging>
  0.0000

> <r_epik_Ionization_Penalty_Neutral>
  0.0000

> <r_epik_State_Penalty>
 -0.0000

> <r_epik_Charging_Adjusted_Penalty>
0

> <i_epik_Tot_Q>
0

> <i_epik_Tot_abs_Q>
0

> <s_lp_Force_Field>
OPLS3e

> <r_lp_Energy>
41.5091

> <b_lp_Chiralities_Consistent>
1

> <s_lp_Variant>
/home/yujie/leadopt/data/result/selection/sEH/lig_7f.sdf:1-1

> <s_i_glide_gridfile>
glide-grid_sEH

> <i_i_glide_lignum>
1

> <i_i_glide_rotatable_bonds>
8

> <r_i_docking_score>
-11.1733409841054

> <r_i_glide_ligand_efficiency>
-0.338586090427436

> <r_i_glide_ligand_efficiency_sa>
-1.08602650743931

> <r_i_glide_ligand_efficiency_ln>
-2.48489318240162

> <r_i_glide_gscore>
-11.1733409841054

> <r_i_glide_lipo>
-3.90612838913876

> <r_i_glide_hbond>
-0.72

> <r_i_glide_metal>
-0

> <r_i_glide_rewards>
-2.46312445433097

> <r_i_glide_evdw>
-48.7505950927734

> <r_i_glide_ecoul>
-13.4872331619263

> <r_i_glide_erotb>
0.57652658829194

> <r_i_glide_esite>
-0.2

> <r_i_glide_emodel>
-95.4766280309232

> <r_i_glide_energy>
-62.2378282546997

> <r_i_glide_einternal>
17.0678901672363

> <i_i_glide_confnum>
9

> <i_i_glide_posenum>
102

> <r_i_glide_eff_state_penalty>
-0

$$$$
