@<TRIPOS>MOLECULE
/home/yujie/leadopt/data/result/selection/sEH/lig_11c.sdf:1
53   56    1
SMALL
USER_CHARGES


@<TRIPOS>ATOM
      1 O1         -1.3279  -15.3319   25.6566 O.2       1 UNK         0.0000 
      2 C2         -0.9456  -14.9313   26.7588 C.2       1 UNK         0.0000 
      3 C3          0.1949  -13.9430   26.8810 C.ar      1 UNK         0.0000 
      4 C4          1.1659  -13.8761   25.8741 C.ar      1 UNK         0.0000 
      5 C5          2.2291  -12.9742   25.9091 C.ar      1 UNK         0.0000 
      6 C6          2.2940  -12.1042   27.0033 C.ar      1 UNK         0.0000 
      7 N7          3.2055  -11.1079   27.3289 N.pl3     1 UNK         0.0000 
      8 C8          4.4131  -10.7678   26.5856 C.3       1 UNK         0.0000 
      9 C9          5.5409  -11.7637   26.9070 C.3       1 UNK         0.0000 
     10 C10         2.8385  -10.5369   28.5261 C.ar      1 UNK         0.0000 
     11 C11         1.6837  -11.1260   28.9902 C.ar      1 UNK         0.0000 
     12 C12         1.3185  -12.1332   28.0443 C.ar      1 UNK         0.0000 
     13 C13         0.2711  -13.0608   27.9682 C.ar      1 UNK         0.0000 
     14 N14        -1.5511  -15.3083   27.8972 N.am      1 UNK         0.0000 
     15 C15        -2.7735  -16.1080   27.9709 C.3       1 UNK         0.0000 
     16 C16        -2.6443  -17.6434   28.0031 C.ar      1 UNK         0.0000 
     17 C17        -3.7759  -18.4584   27.7881 C.ar      1 UNK         0.0000 
     18 C18        -5.1403  -17.8672   27.4130 C.3       1 UNK         0.0000 
     19 F19        -6.1156  -18.7731   27.4169 F         1 UNK         0.0000 
     20 F20        -5.4731  -16.9323   28.2937 F         1 UNK         0.0000 
     21 F21        -5.0913  -17.3275   26.1927 F         1 UNK         0.0000 
     22 C22        -3.6647  -19.8420   27.9572 C.ar      1 UNK         0.0000 
     23 C23        -2.4665  -20.4688   28.2974 C.ar      1 UNK         0.0000 
     24 N24        -2.5439  -21.8197   28.5200 N.2       1 UNK         0.0000 
     25 S25        -1.3913  -22.8635   28.3440 S.o2      1 UNK         0.0000 
     26 C26        -1.3709  -23.0989   26.4618 C.3       1 UNK         0.0000 
     27 C27        -0.6311  -24.3008   25.9310 C.3       1 UNK         0.0000 
     28 C28        -2.1468  -24.2697   25.8989 C.3       1 UNK         0.0000 
     29 O29        -0.0497  -22.3873   28.6847 O.2       1 UNK         0.0000 
     30 O30        -1.7589  -24.1619   28.9153 O.2       1 UNK         0.0000 
     31 C31        -1.3361  -19.6501   28.4281 C.ar      1 UNK         0.0000 
     32 C32        -1.4208  -18.2629   28.2942 C.ar      1 UNK         0.0000 
     33 H33         1.1029  -14.5433   25.0250 H         1 UNK         0.0000 
     34 H34         2.9641  -12.9511   25.1184 H         1 UNK         0.0000 
     35 H35         4.7107   -9.7482   26.8404 H         1 UNK         0.0000 
     36 H36         4.1788  -10.7700   25.5210 H         1 UNK         0.0000 
     37 H37         6.4549  -11.5005   26.3737 H         1 UNK         0.0000 
     38 H38         5.2710  -12.7809   26.6175 H         1 UNK         0.0000 
     39 H39         5.7727  -11.7718   27.9736 H         1 UNK         0.0000 
     40 H40         3.4488   -9.7527   28.9554 H         1 UNK         0.0000 
     41 H41         1.1673  -10.8722   29.9014 H         1 UNK         0.0000 
     42 H42        -0.4783  -13.0732   28.7467 H         1 UNK         0.0000 
     43 H43        -1.1975  -14.9756   28.7970 H         1 UNK         0.0000 
     44 H44        -3.2827  -15.8059   28.8874 H         1 UNK         0.0000 
     45 H45        -3.4233  -15.8159   27.1459 H         1 UNK         0.0000 
     46 H46        -4.5415  -20.4609   27.8333 H         1 UNK         0.0000 
     47 H47        -1.3286  -22.1455   25.9376 H         1 UNK         0.0000 
     48 H48        -0.0717  -24.1990   25.0001 H         1 UNK         0.0000 
     49 H49        -0.1294  -24.9424   26.6517 H         1 UNK         0.0000 
     50 H50        -2.7061  -24.9102   26.5814 H         1 UNK         0.0000 
     51 H51        -2.6657  -24.1375   24.9508 H         1 UNK         0.0000 
     52 H52        -0.3833  -20.0654   28.7111 H         1 UNK         0.0000 
     53 H53        -0.5329  -17.6706   28.4614 H         1 UNK         0.0000 
@<TRIPOS>BOND
     1    1    2 2    
     2    2    3 1    
     3    2   14 am   BACKBONE|DICT|INTERRES
     4    3   13 ar   
     5    3    4 ar   
     6    4    5 ar   
     7    4   33 1    
     8    5    6 ar   
     9    5   34 1    
    10    6    7 ar   
    11    6   12 ar   
    12    7    8 1    
    13    7   10 ar   
    14    8    9 1    
    15    8   35 1    
    16    8   36 1    
    17    9   37 1    
    18    9   38 1    
    19    9   39 1    
    20   10   11 ar   
    21   10   40 1    
    22   11   12 ar   
    23   11   41 1    
    24   12   13 ar   
    25   13   42 1    
    26   14   15 1    
    27   14   43 1    
    28   15   16 1    
    29   15   44 1    
    30   15   45 1    
    31   16   32 ar   
    32   16   17 ar   
    33   17   18 1    
    34   17   22 ar   
    35   18   19 1    
    36   18   20 1    
    37   18   21 1    
    38   22   23 ar   
    39   22   46 1    
    40   23   24 1    
    41   23   31 ar   
    42   24   25 1    
    43   25   26 1    
    44   25   29 2    
    45   25   30 2    
    46   26   28 1    
    47   26   27 1    
    48   26   47 1    
    49   27   28 1    
    50   27   48 1    
    51   27   49 1    
    52   28   50 1    
    53   28   51 1    
    54   31   32 ar   
    55   31   52 1    
    56   32   53 1    
@<TRIPOS>SUBSTRUCTURE
     1 UNK         1 GROUP             0       ****    0 ROOT    
