@<TRIPOS>MOLECULE
/home/yujie/leadopt/data/result/selection/sEH/lig_11a.sdf:1
47   50    1
SMALL
USER_CHARGES


@<TRIPOS>ATOM
      1 O1         -1.3287  -15.3329   25.6481 O.2       1 UNK         0.0000 
      2 C2         -0.9294  -14.9590   26.7536 C.2       1 UNK         0.0000 
      3 C3          0.2011  -13.9617   26.8659 C.ar      1 UNK         0.0000 
      4 C4          1.1463  -13.8721   25.8359 C.ar      1 UNK         0.0000 
      5 C5          2.1948  -12.9518   25.8512 C.ar      1 UNK         0.0000 
      6 C6          2.2733  -12.1005   26.9556 C.ar      1 UNK         0.0000 
      7 N7          3.1743  -11.1039   27.2693 N.pl3     1 UNK         0.0000 
      8 C8          2.8483  -10.5334   28.4738 C.ar      1 UNK         0.0000 
      9 C9          1.7179  -11.1486   28.9705 C.ar      1 UNK         0.0000 
     10 C10         1.3312  -12.1529   28.0245 C.ar      1 UNK         0.0000 
     11 C11         0.2908  -13.0907   27.9623 C.ar      1 UNK         0.0000 
     12 N12        -1.4940  -15.3827   27.8972 N.am      1 UNK         0.0000 
     13 C13        -2.7309  -16.1619   27.9677 C.3       1 UNK         0.0000 
     14 C14        -2.6328  -17.6984   27.9942 C.ar      1 UNK         0.0000 
     15 C15        -3.7841  -18.4834   27.7781 C.ar      1 UNK         0.0000 
     16 C16        -5.1302  -17.8574   27.3942 C.3       1 UNK         0.0000 
     17 F17        -5.4519  -16.9326   28.2902 F         1 UNK         0.0000 
     18 F18        -5.0544  -17.2954   26.1873 F         1 UNK         0.0000 
     19 F19        -6.1276  -18.7387   27.3666 F         1 UNK         0.0000 
     20 C20        -3.7132  -19.8675   27.9738 C.ar      1 UNK         0.0000 
     21 C21        -2.5402  -20.5163   28.3578 C.ar      1 UNK         0.0000 
     22 N22        -2.6721  -21.8407   28.6892 N.2       1 UNK         0.0000 
     23 S23        -1.5548  -22.9377   28.7163 S.o2      1 UNK         0.0000 
     24 C24        -2.1761  -24.0982   27.3492 C.3       1 UNK         0.0000 
     25 C25        -1.7788  -23.7658   25.9295 C.3       1 UNK         0.0000 
     26 C26        -1.1654  -24.9589   26.6339 C.3       1 UNK         0.0000 
     27 O27        -0.2203  -22.4982   28.2968 O.2       1 UNK         0.0000 
     28 O28        -1.6156  -23.7320   29.9476 O.2       1 UNK         0.0000 
     29 C29        -1.3836  -19.7332   28.4716 C.ar      1 UNK         0.0000 
     30 C30        -1.4269  -18.3462   28.2965 C.ar      1 UNK         0.0000 
     31 H31         1.0729  -14.5342   24.9840 H         1 UNK         0.0000 
     32 H32         2.9076  -12.9034   25.0416 H         1 UNK         0.0000 
     33 H33         3.9712  -10.8082   26.7248 H         1 UNK         0.0000 
     34 H34         3.4569   -9.7338   28.8739 H         1 UNK         0.0000 
     35 H35         1.2279  -10.9086   29.9014 H         1 UNK         0.0000 
     36 H36        -0.4425  -13.1188   28.7547 H         1 UNK         0.0000 
     37 H37        -1.1159  -15.0813   28.7979 H         1 UNK         0.0000 
     38 H38        -3.2308  -15.8533   28.8873 H         1 UNK         0.0000 
     39 H39        -3.3793  -15.8502   27.1487 H         1 UNK         0.0000 
     40 H40        -4.6084  -20.4637   27.8666 H         1 UNK         0.0000 
     41 H41        -3.1704  -24.4799   27.5722 H         1 UNK         0.0000 
     42 H42        -2.5079  -23.9315   25.1357 H         1 UNK         0.0000 
     43 H43        -1.1688  -22.8778   25.7601 H         1 UNK         0.0000 
     44 H44        -0.1288  -24.9104   26.9602 H         1 UNK         0.0000 
     45 H45        -1.4625  -25.9662   26.3386 H         1 UNK         0.0000 
     46 H46        -0.4490  -20.1729   28.7858 H         1 UNK         0.0000 
     47 H47        -0.5247  -17.7757   28.4627 H         1 UNK         0.0000 
@<TRIPOS>BOND
     1    1    2 2    
     2    2    3 1    
     3    2   12 am   BACKBONE|DICT|INTERRES
     4    3   11 ar   
     5    3    4 ar   
     6    4    5 ar   
     7    4   31 1    
     8    5    6 ar   
     9    5   32 1    
    10    6    7 ar   
    11    6   10 ar   
    12    7    8 ar   
    13    7   33 1    
    14    8    9 ar   
    15    8   34 1    
    16    9   10 ar   
    17    9   35 1    
    18   10   11 ar   
    19   11   36 1    
    20   12   13 1    
    21   12   37 1    
    22   13   14 1    
    23   13   38 1    
    24   13   39 1    
    25   14   30 ar   
    26   14   15 ar   
    27   15   16 1    
    28   15   20 ar   
    29   16   17 1    
    30   16   18 1    
    31   16   19 1    
    32   20   21 ar   
    33   20   40 1    
    34   21   22 1    
    35   21   29 ar   
    36   22   23 1    
    37   23   24 1    
    38   23   27 2    
    39   23   28 2    
    40   24   26 1    
    41   24   25 1    
    42   24   41 1    
    43   25   26 1    
    44   25   42 1    
    45   25   43 1    
    46   26   44 1    
    47   26   45 1    
    48   29   30 ar   
    49   29   46 1    
    50   30   47 1    
@<TRIPOS>SUBSTRUCTURE
     1 UNK         1 GROUP             0       ****    0 ROOT    
