@<TRIPOS>MOLECULE
/home/yujie/leadopt/data/result/selection/sEH/lig_6f.sdf:1
49   52    1
SMALL
USER_CHARGES


@<TRIPOS>ATOM
      1 O1         -1.3315  -15.3330   25.6912 O.2       1 UNK         0.0000 
      2 C2         -0.8651  -14.8262   26.7109 C.2       1 UNK         0.0000 
      3 C3          0.4609  -14.1239   26.6288 C.ar      1 UNK         0.0000 
      4 C4          0.6494  -12.8349   27.1618 C.ar      1 UNK         0.0000 
      5 C5          1.8238  -12.1195   26.8911 C.ar      1 UNK         0.0000 
      6 C6          2.8182  -12.7383   26.1298 C.ar      1 UNK         0.0000 
      7 N7          4.0383  -12.3164   25.6432 N.pl3     1 UNK         0.0000 
      8 C8          4.5393  -10.9477   25.6399 C.3       1 UNK         0.0000 
      9 C9          5.7079  -10.6795   26.5668 C.ar      1 UNK         0.0000 
     10 C10         5.6111  -10.9339   27.9385 C.ar      1 UNK         0.0000 
     11 C11         6.6438  -10.5333   28.7836 C.ar      1 UNK         0.0000 
     12 C12         7.7464   -9.8703   28.2509 C.ar      1 UNK         0.0000 
     13 F13         8.6708   -9.3311   29.0724 F         1 UNK         0.0000 
     14 C14         7.8845   -9.7106   26.8768 C.ar      1 UNK         0.0000 
     15 C15         6.8629  -10.1136   26.0298 C.ar      1 UNK         0.0000 
     16 C16         4.7030  -13.3306   25.0268 C.ar      1 UNK         0.0000 
     17 N17         3.8592  -14.3753   25.0973 N.pl3     1 UNK         0.0000 
     18 O18         5.8141  -13.3198   24.4987 O.2       1 UNK         0.0000 
     19 C19         2.6871  -14.0298   25.7192 C.ar      1 UNK         0.0000 
     20 C20         1.5087  -14.7302   25.9149 C.ar      1 UNK         0.0000 
     21 N21        -1.4929  -14.8802   27.8972 N.am      1 UNK         0.0000 
     22 C22        -2.6968  -15.6869   28.1511 C.3       1 UNK         0.0000 
     23 C23        -2.4841  -17.2152   28.1315 C.ar      1 UNK         0.0000 
     24 C24        -3.4412  -18.1228   27.6128 C.ar      1 UNK         0.0000 
     25 C25        -4.7694  -17.6602   27.0045 C.3       1 UNK         0.0000 
     26 F26        -4.5407  -16.9311   25.9125 F         1 UNK         0.0000 
     27 F27        -5.5601  -18.6756   26.6492 F         1 UNK         0.0000 
     28 F28        -5.4370  -16.9347   27.8963 F         1 UNK         0.0000 
     29 C29        -3.1771  -19.5006   27.6674 C.ar      1 UNK         0.0000 
     30 C30        -1.9911  -19.9845   28.2079 C.ar      1 UNK         0.0000 
     31 C31        -1.0445  -19.0947   28.6970 C.ar      1 UNK         0.0000 
     32 C32        -1.2866  -17.7244   28.6559 C.ar      1 UNK         0.0000 
     33 H33        -0.1375  -12.3515   27.7245 H         1 UNK         0.0000 
     34 H34         1.9306  -11.1069   27.2503 H         1 UNK         0.0000 
     35 H35         4.8186  -10.6883   24.6167 H         1 UNK         0.0000 
     36 H36         3.7318  -10.2646   25.9048 H         1 UNK         0.0000 
     37 H37         4.7222  -11.3866   28.3537 H         1 UNK         0.0000 
     38 H38         6.5641  -10.6643   29.8549 H         1 UNK         0.0000 
     39 H39         8.7544   -9.2138   26.4748 H         1 UNK         0.0000 
     40 H40         6.9504   -9.9373   24.9673 H         1 UNK         0.0000 
     41 H41         4.0900  -15.2985   24.7599 H         1 UNK         0.0000 
     42 H42         1.4200  -15.7283   25.5015 H         1 UNK         0.0000 
     43 H43        -1.0463  -14.5329   28.7511 H         1 UNK         0.0000 
     44 H44        -3.4829  -15.3613   27.4731 H         1 UNK         0.0000 
     45 H45        -3.0586  -15.4239   29.1447 H         1 UNK         0.0000 
     46 H46        -3.8906  -20.2171   27.2867 H         1 UNK         0.0000 
     47 H47        -1.8027  -21.0477   28.2422 H         1 UNK         0.0000 
     48 H48        -0.1290  -19.4725   29.1253 H         1 UNK         0.0000 
     49 H49        -0.5418  -17.0541   29.0629 H         1 UNK         0.0000 
@<TRIPOS>BOND
     1    1    2 2    
     2    2    3 1    
     3    2   21 am   BACKBONE|DICT|INTERRES
     4    3   20 ar   
     5    3    4 ar   
     6    4    5 ar   
     7    4   33 1    
     8    5    6 ar   
     9    5   34 1    
    10    6    7 ar   
    11    6   19 ar   
    12    7    8 1    
    13    7   16 ar   
    14    8    9 1    
    15    8   35 1    
    16    8   36 1    
    17    9   15 ar   
    18    9   10 ar   
    19   10   11 ar   
    20   10   37 1    
    21   11   12 ar   
    22   11   38 1    
    23   12   13 1    
    24   12   14 ar   
    25   14   15 ar   
    26   14   39 1    
    27   15   40 1    
    28   16   17 ar   
    29   16   18 2    
    30   17   19 ar   
    31   17   41 1    
    32   19   20 ar   
    33   20   42 1    
    34   21   22 1    
    35   21   43 1    
    36   22   23 1    
    37   22   44 1    
    38   22   45 1    
    39   23   32 ar   
    40   23   24 ar   
    41   24   25 1    
    42   24   29 ar   
    43   25   26 1    
    44   25   27 1    
    45   25   28 1    
    46   29   30 ar   
    47   29   46 1    
    48   30   31 ar   
    49   30   47 1    
    50   31   32 ar   
    51   31   48 1    
    52   32   49 1    
@<TRIPOS>SUBSTRUCTURE
     1 UNK         1 GROUP             0       ****    0 ROOT    
