@<TRIPOS>MOLECULE
/home/yujie/leadopt/data/result/selection/sEH/lig_11f.sdf:1
58   62    1
SMALL
USER_CHARGES


@<TRIPOS>ATOM
      1 O1         -1.3290  -15.3327   25.6729 O.2       1 UNK         0.0000 
      2 C2         -0.9945  -14.9169   26.7839 C.2       1 UNK         0.0000 
      3 C3          0.1761  -13.9733   26.9263 C.ar      1 UNK         0.0000 
      4 C4          1.1560  -13.9381   25.9266 C.ar      1 UNK         0.0000 
      5 C5          2.2602  -13.0918   25.9826 C.ar      1 UNK         0.0000 
      6 C6          2.3675  -12.2547   27.0986 C.ar      1 UNK         0.0000 
      7 N7          3.3500  -11.3488   27.4723 N.pl3     1 UNK         0.0000 
      8 C8          4.5294  -10.9882   26.6987 C.3       1 UNK         0.0000 
      9 C9          4.1898   -9.7913   25.8019 C.3       1 UNK         0.0000 
     10 C10         4.9279   -9.5427   24.5135 C.3       1 UNK         0.0000 
     11 C11         3.4700   -9.9843   24.4997 C.3       1 UNK         0.0000 
     12 C12         2.9863  -10.7559   28.6591 C.ar      1 UNK         0.0000 
     13 C13         1.7909  -11.2763   29.0977 C.ar      1 UNK         0.0000 
     14 C14         1.3786  -12.2431   28.1280 C.ar      1 UNK         0.0000 
     15 C15         0.2790  -13.1039   28.0217 C.ar      1 UNK         0.0000 
     16 N16        -1.6724  -15.2446   27.8971 N.am      1 UNK         0.0000 
     17 C17        -2.8965  -16.0527   27.9182 C.3       1 UNK         0.0000 
     18 C18        -2.7441  -17.5867   27.9228 C.ar      1 UNK         0.0000 
     19 C19        -3.8364  -18.4306   27.6150 C.ar      1 UNK         0.0000 
     20 C20        -5.1688  -17.8739   27.0880 C.3       1 UNK         0.0000 
     21 F21        -6.1197  -18.8017   26.9880 F         1 UNK         0.0000 
     22 F22        -5.6375  -16.9330   27.8976 F         1 UNK         0.0000 
     23 F23        -4.9864  -17.3449   25.8774 F         1 UNK         0.0000 
     24 C24        -3.7091  -19.8134   27.8260 C.ar      1 UNK         0.0000 
     25 C25        -2.5215  -20.3761   28.2951 C.ar      1 UNK         0.0000 
     26 N26        -2.5272  -21.7346   28.6489 N.pl3     1 UNK         0.0000 
     27 S27        -1.2338  -22.8847   28.2642 S.o2      1 UNK         0.0000 
     28 C28        -1.3907  -23.0280   26.3851 C.3       1 UNK         0.0000 
     29 C29        -0.7491  -24.2227   25.7242 C.3       1 UNK         0.0000 
     30 C30        -2.2620  -24.1474   25.8656 C.3       1 UNK         0.0000 
     31 O31         0.0549  -22.2744   28.5923 O.2       1 UNK         0.0000 
     32 O32        -1.6296  -24.1566   28.8769 O.2       1 UNK         0.0000 
     33 C33        -1.4149  -19.5474   28.4880 C.ar      1 UNK         0.0000 
     34 C34        -1.5259  -18.1702   28.2987 C.ar      1 UNK         0.0000 
     35 H35         1.0726  -14.5877   25.0674 H         1 UNK         0.0000 
     36 H36         3.0066  -13.1039   25.2031 H         1 UNK         0.0000 
     37 H37         4.8622  -11.8551   26.1264 H         1 UNK         0.0000 
     38 H38         5.3348  -10.7361   27.3905 H         1 UNK         0.0000 
     39 H39         3.8791   -8.9331   26.3900 H         1 UNK         0.0000 
     40 H40         5.6994  -10.2485   24.2038 H         1 UNK         0.0000 
     41 H41         5.1728   -8.5154   24.2409 H         1 UNK         0.0000 
     42 H42         2.6727   -9.2711   24.2968 H         1 UNK         0.0000 
     43 H43         3.2260  -10.9903   24.1591 H         1 UNK         0.0000 
     44 H44         3.6225   -9.9989   29.0965 H         1 UNK         0.0000 
     45 H45         1.2782  -10.9956   30.0045 H         1 UNK         0.0000 
     46 H46        -0.4809  -13.0808   28.7897 H         1 UNK         0.0000 
     47 H47        -1.3302  -14.9336   28.8112 H         1 UNK         0.0000 
     48 H48        -3.4311  -15.7827   28.8310 H         1 UNK         0.0000 
     49 H49        -3.5385  -15.7382   27.0947 H         1 UNK         0.0000 
     50 H50        -4.5550  -20.4635   27.6513 H         1 UNK         0.0000 
     51 H51        -3.4335  -22.1715   28.7033 H         1 UNK         0.0000 
     52 H52        -1.3415  -22.0546   25.9005 H         1 UNK         0.0000 
     53 H53        -0.3003  -24.0927   24.7388 H         1 UNK         0.0000 
     54 H54        -0.1735  -24.9112   26.3459 H         1 UNK         0.0000 
     55 H55        -2.7584  -24.8105   26.5758 H         1 UNK         0.0000 
     56 H56        -2.8853  -23.9544   24.9943 H         1 UNK         0.0000 
     57 H57        -0.4848  -19.9403   28.8692 H         1 UNK         0.0000 
     58 H58        -0.6688  -17.5517   28.5274 H         1 UNK         0.0000 
@<TRIPOS>BOND
     1    1    2 2    
     2    2    3 1    
     3    2   16 am   BACKBONE|DICT|INTERRES
     4    3   15 ar   
     5    3    4 ar   
     6    4    5 ar   
     7    4   35 1    
     8    5    6 ar   
     9    5   36 1    
    10    6    7 ar   
    11    6   14 ar   
    12    7    8 1    
    13    7   12 ar   
    14    8    9 1    
    15    8   37 1    
    16    8   38 1    
    17    9   11 1    
    18    9   10 1    
    19    9   39 1    
    20   10   11 1    
    21   10   40 1    
    22   10   41 1    
    23   11   42 1    
    24   11   43 1    
    25   12   13 ar   
    26   12   44 1    
    27   13   14 ar   
    28   13   45 1    
    29   14   15 ar   
    30   15   46 1    
    31   16   17 1    
    32   16   47 1    
    33   17   18 1    
    34   17   48 1    
    35   17   49 1    
    36   18   34 ar   
    37   18   19 ar   
    38   19   20 1    
    39   19   24 ar   
    40   20   21 1    
    41   20   22 1    
    42   20   23 1    
    43   24   25 ar   
    44   24   50 1    
    45   25   26 1    
    46   25   33 ar   
    47   26   27 1    
    48   26   51 1    
    49   27   28 1    
    50   27   31 2    
    51   27   32 2    
    52   28   30 1    
    53   28   29 1    
    54   28   52 1    
    55   29   30 1    
    56   29   53 1    
    57   29   54 1    
    58   30   55 1    
    59   30   56 1    
    60   33   34 ar   
    61   33   57 1    
    62   34   58 1    
@<TRIPOS>SUBSTRUCTURE
     1 UNK         1 GROUP             0       ****    0 ROOT    
