@<TRIPOS>MOLECULE
/home/yujie/leadopt/data/result/selection/sEH/lig_6h.sdf:1
49   52    1
SMALL
USER_CHARGES


@<TRIPOS>ATOM
      1 O1         -1.3290  -15.3329   25.7267 O.2       1 UNK         0.0000 
      2 C2         -0.9670  -14.7418   26.7465 C.2       1 UNK         0.0000 
      3 C3          0.1600  -13.7331   26.6990 C.ar      1 UNK         0.0000 
      4 C4          0.6710  -13.0935   27.8526 C.ar      1 UNK         0.0000 
      5 C5          1.6751  -12.1157   27.7514 C.ar      1 UNK         0.0000 
      6 C6          2.1687  -11.7891   26.4856 C.ar      1 UNK         0.0000 
      7 N7          3.0968  -10.8655   26.0200 N.pl3     1 UNK         0.0000 
      8 C8          3.9878   -9.9833   26.7811 C.3       1 UNK         0.0000 
      9 C9          5.4614  -10.3764   26.6610 C.ar      1 UNK         0.0000 
     10 C10         6.2634   -9.7329   25.7110 C.ar      1 UNK         0.0000 
     11 C11         7.5871  -10.1207   25.5215 C.ar      1 UNK         0.0000 
     12 C12         8.1241  -11.1441   26.2970 C.ar      1 UNK         0.0000 
     13 C13         7.3537  -11.7529   27.2863 C.ar      1 UNK         0.0000 
     14 C14         6.0261  -11.3669   27.4726 C.ar      1 UNK         0.0000 
     15 Cl15        5.0951  -12.1359   28.6972 Cl        1 UNK         0.0000 
     16 C16         3.1752  -10.9066   24.6628 C.ar      1 UNK         0.0000 
     17 N17         2.3153  -11.8669   24.2972 N.pl3     1 UNK         0.0000 
     18 O18         3.8710  -10.2330   23.9035 O.2       1 UNK         0.0000 
     19 C19         1.6762  -12.4110   25.3743 C.ar      1 UNK         0.0000 
     20 C20         0.6927  -13.3850   25.4483 C.ar      1 UNK         0.0000 
     21 N21        -1.6346  -14.8892   27.8972 N.am      1 UNK         0.0000 
     22 C22        -2.8084  -15.7435   28.1027 C.3       1 UNK         0.0000 
     23 C23        -2.5476  -17.2592   28.1134 C.ar      1 UNK         0.0000 
     24 C24        -3.5006  -18.1899   27.6354 C.ar      1 UNK         0.0000 
     25 C25        -4.8459  -17.7479   27.0418 C.3       1 UNK         0.0000 
     26 F26        -4.6429  -17.0872   25.9011 F         1 UNK         0.0000 
     27 F27        -5.6542  -18.7763   26.7769 F         1 UNK         0.0000 
     28 F28        -5.4838  -16.9522   27.8972 F         1 UNK         0.0000 
     29 C29        -3.2136  -19.5616   27.7193 C.ar      1 UNK         0.0000 
     30 C30        -2.0078  -20.0125   28.2490 C.ar      1 UNK         0.0000 
     31 C31        -1.0635  -19.0966   28.6972 C.ar      1 UNK         0.0000 
     32 C32        -1.3291  -17.7322   28.6236 C.ar      1 UNK         0.0000 
     33 H33         0.2866  -13.3322   28.8352 H         1 UNK         0.0000 
     34 H34         2.0400  -11.6275   28.6430 H         1 UNK         0.0000 
     35 H35         3.8550   -8.9571   26.4368 H         1 UNK         0.0000 
     36 H36         3.6957   -9.9695   27.8314 H         1 UNK         0.0000 
     37 H37         5.8483   -8.9550   25.0862 H         1 UNK         0.0000 
     38 H38         8.1881   -9.6416   24.7624 H         1 UNK         0.0000 
     39 H39         9.1362  -11.4653   26.1239 H         1 UNK         0.0000 
     40 H40         7.7822  -12.5329   27.8978 H         1 UNK         0.0000 
     41 H41         2.1707  -12.1329   23.3302 H         1 UNK         0.0000 
     42 H42         0.3306  -13.8449   24.5395 H         1 UNK         0.0000 
     43 H43        -1.2468  -14.5329   28.7736 H         1 UNK         0.0000 
     44 H44        -3.5573  -15.4629   27.3655 H         1 UNK         0.0000 
     45 H45        -3.2332  -15.4801   29.0733 H         1 UNK         0.0000 
     46 H46        -3.9236  -20.2968   27.3688 H         1 UNK         0.0000 
     47 H47        -1.8016  -21.0714   28.3054 H         1 UNK         0.0000 
     48 H48        -0.1290  -19.4457   29.1132 H         1 UNK         0.0000 
     49 H49        -0.5880  -17.0396   28.9981 H         1 UNK         0.0000 
@<TRIPOS>BOND
     1    1    2 2    
     2    2    3 1    
     3    2   21 am   BACKBONE|DICT|INTERRES
     4    3   20 ar   
     5    3    4 ar   
     6    4    5 ar   
     7    4   33 1    
     8    5    6 ar   
     9    5   34 1    
    10    6    7 ar   
    11    6   19 ar   
    12    7    8 1    
    13    7   16 ar   
    14    8    9 1    
    15    8   35 1    
    16    8   36 1    
    17    9   14 ar   
    18    9   10 ar   
    19   10   11 ar   
    20   10   37 1    
    21   11   12 ar   
    22   11   38 1    
    23   12   13 ar   
    24   12   39 1    
    25   13   14 ar   
    26   13   40 1    
    27   14   15 1    
    28   16   17 ar   
    29   16   18 2    
    30   17   19 ar   
    31   17   41 1    
    32   19   20 ar   
    33   20   42 1    
    34   21   22 1    
    35   21   43 1    
    36   22   23 1    
    37   22   44 1    
    38   22   45 1    
    39   23   32 ar   
    40   23   24 ar   
    41   24   25 1    
    42   24   29 ar   
    43   25   26 1    
    44   25   27 1    
    45   25   28 1    
    46   29   30 ar   
    47   29   46 1    
    48   30   31 ar   
    49   30   47 1    
    50   31   32 ar   
    51   31   48 1    
    52   32   49 1    
@<TRIPOS>SUBSTRUCTURE
     1 UNK         1 GROUP             0       ****    0 ROOT    
