@<TRIPOS>MOLECULE
/home/yujie/leadopt/data/result/selection/sEH/lig_6d.sdf:1
49   52    1
SMALL
USER_CHARGES


@<TRIPOS>ATOM
      1 O1         -1.5965  -15.7322   25.7344 O.2       1 UNK         0.0000 
      2 C2         -1.2719  -15.1333   26.7513 C.2       1 UNK         0.0000 
      3 C3         -0.1618  -14.1110   26.7224 C.ar      1 UNK         0.0000 
      4 C4          0.6272  -13.9366   25.5636 C.ar      1 UNK         0.0000 
      5 C5          1.6206  -12.9561   25.4995 C.ar      1 UNK         0.0000 
      6 C6          1.8227  -12.1553   26.6188 C.ar      1 UNK         0.0000 
      7 N7          2.6665  -11.0968   26.8695 N.pl3     1 UNK         0.0000 
      8 C8          3.6830  -10.5240   25.9795 C.3       1 UNK         0.0000 
      9 C9          5.0740  -11.1219   26.1486 C.ar      1 UNK         0.0000 
     10 C10         5.8907  -10.6921   27.2019 C.ar      1 UNK         0.0000 
     11 C11         7.1793  -11.2042   27.3535 C.ar      1 UNK         0.0000 
     12 C12         7.6681  -12.1326   26.4363 C.ar      1 UNK         0.0000 
     13 C13         6.8648  -12.5552   25.3756 C.ar      1 UNK         0.0000 
     14 C14         5.5687  -12.0593   25.2333 C.ar      1 UNK         0.0000 
     15 F15         4.8028  -12.4868   24.2023 F         1 UNK         0.0000 
     16 C16         2.4786  -10.6379   28.1325 C.ar      1 UNK         0.0000 
     17 N17         1.4915  -11.3876   28.6476 N.pl3     1 UNK         0.0000 
     18 O18         3.0694   -9.7334   28.6970 O.2       1 UNK         0.0000 
     19 C19         1.0712  -12.3212   27.7477 C.ar      1 UNK         0.0000 
     20 C20         0.0757  -13.2800   27.8299 C.ar      1 UNK         0.0000 
     21 N21        -1.9436  -15.2996   27.8975 N.am      1 UNK         0.0000 
     22 C22        -3.1055  -16.1688   28.0768 C.3       1 UNK         0.0000 
     23 C23        -2.8196  -17.6771   28.0004 C.ar      1 UNK         0.0000 
     24 C24        -3.7385  -18.5876   27.4325 C.ar      1 UNK         0.0000 
     25 C25        -5.0141  -18.1195   26.7176 C.3       1 UNK         0.0000 
     26 F26        -4.6940  -17.3335   25.6870 F         1 UNK         0.0000 
     27 F27        -5.7288  -19.1355   26.2324 F         1 UNK         0.0000 
     28 F28        -5.7954  -17.4321   27.5472 F         1 UNK         0.0000 
     29 C29        -3.4546  -19.9624   27.4973 C.ar      1 UNK         0.0000 
     30 C30        -2.2606  -20.4268   28.0419 C.ar      1 UNK         0.0000 
     31 C31        -1.3288  -19.5244   28.5383 C.ar      1 UNK         0.0000 
     32 C32        -1.6081  -18.1609   28.5225 C.ar      1 UNK         0.0000 
     33 H33         0.4623  -14.5329   24.6785 H         1 UNK         0.0000 
     34 H34         2.1978  -12.8234   24.5951 H         1 UNK         0.0000 
     35 H35         3.3556  -10.6615   24.9481 H         1 UNK         0.0000 
     36 H36         3.7406   -9.4421   26.1183 H         1 UNK         0.0000 
     37 H37         5.5253   -9.9622   27.9107 H         1 UNK         0.0000 
     38 H38         7.7979  -10.8783   28.1767 H         1 UNK         0.0000 
     39 H39         8.6690  -12.5238   26.5450 H         1 UNK         0.0000 
     40 H40         7.2429  -13.2731   24.6602 H         1 UNK         0.0000 
     41 H41         1.1243  -11.2711   29.5787 H         1 UNK         0.0000 
     42 H42        -0.5288  -13.3355   28.7204 H         1 UNK         0.0000 
     43 H43        -1.5543  -14.9241   28.7646 H         1 UNK         0.0000 
     44 H44        -3.8639  -15.8445   27.3658 H         1 UNK         0.0000 
     45 H45        -3.5207  -15.9630   29.0641 H         1 UNK         0.0000 
     46 H46        -4.1451  -20.6876   27.0884 H         1 UNK         0.0000 
     47 H47        -2.0490  -21.4868   28.0642 H         1 UNK         0.0000 
     48 H48        -0.4014  -19.8799   28.9652 H         1 UNK         0.0000 
     49 H49        -0.8854  -17.4787   28.9462 H         1 UNK         0.0000 
@<TRIPOS>BOND
     1    1    2 2    
     2    2    3 1    
     3    2   21 am   BACKBONE|DICT|INTERRES
     4    3   20 ar   
     5    3    4 ar   
     6    4    5 ar   
     7    4   33 1    
     8    5    6 ar   
     9    5   34 1    
    10    6    7 ar   
    11    6   19 ar   
    12    7    8 1    
    13    7   16 ar   
    14    8    9 1    
    15    8   35 1    
    16    8   36 1    
    17    9   14 ar   
    18    9   10 ar   
    19   10   11 ar   
    20   10   37 1    
    21   11   12 ar   
    22   11   38 1    
    23   12   13 ar   
    24   12   39 1    
    25   13   14 ar   
    26   13   40 1    
    27   14   15 1    
    28   16   17 ar   
    29   16   18 2    
    30   17   19 ar   
    31   17   41 1    
    32   19   20 ar   
    33   20   42 1    
    34   21   22 1    
    35   21   43 1    
    36   22   23 1    
    37   22   44 1    
    38   22   45 1    
    39   23   32 ar   
    40   23   24 ar   
    41   24   25 1    
    42   24   29 ar   
    43   25   26 1    
    44   25   27 1    
    45   25   28 1    
    46   29   30 ar   
    47   29   46 1    
    48   30   31 ar   
    49   30   47 1    
    50   31   32 ar   
    51   31   48 1    
    52   32   49 1    
@<TRIPOS>SUBSTRUCTURE
     1 UNK         1 GROUP             0       ****    0 ROOT    
