@<TRIPOS>MOLECULE
/home/yujie/leadopt/data/result/selection/sEH/lig_11j.sdf:1
59   63    1
SMALL
USER_CHARGES


@<TRIPOS>ATOM
      1 O1         -1.3269  -15.3329   25.6682 O.2       1 UNK         0.0000 
      2 C2         -0.9628  -14.9154   26.7707 C.2       1 UNK         0.0000 
      3 C3          0.1866  -13.9386   26.8987 C.ar      1 UNK         0.0000 
      4 C4          1.1633  -13.8778   25.8972 C.ar      1 UNK         0.0000 
      5 C5          2.2299  -12.9792   25.9367 C.ar      1 UNK         0.0000 
      6 C6          2.2920  -12.1050   27.0291 C.ar      1 UNK         0.0000 
      7 N7          3.2029  -11.1088   27.3559 N.pl3     1 UNK         0.0000 
      8 C8          4.4198  -10.7770   26.6237 C.3       1 UNK         0.0000 
      9 C9          5.5700  -11.7198   27.0351 C.3       1 UNK         0.0000 
     10 C10         6.9484  -11.3691   26.4616 C.3       1 UNK         0.0000 
     11 O11         7.5207  -11.2833   27.8348 O.3       1 UNK         0.0000 
     12 C12         6.1668  -11.4696   28.4275 C.3       1 UNK         0.0000 
     13 C13         2.8292  -10.5346   28.5496 C.ar      1 UNK         0.0000 
     14 C14         1.6741  -11.1230   29.0119 C.ar      1 UNK         0.0000 
     15 C15         1.3132  -12.1316   28.0658 C.ar      1 UNK         0.0000 
     16 C16         0.2653  -13.0563   27.9868 C.ar      1 UNK         0.0000 
     17 N17        -1.6056  -15.2638   27.8971 N.am      1 UNK         0.0000 
     18 C18        -2.8238  -16.0743   27.9340 C.3       1 UNK         0.0000 
     19 C19        -2.6666  -17.6060   27.9276 C.ar      1 UNK         0.0000 
     20 C20        -3.7642  -18.4397   27.6182 C.ar      1 UNK         0.0000 
     21 C21        -5.0860  -17.8696   27.0830 C.3       1 UNK         0.0000 
     22 F22        -4.8868  -17.3287   25.8795 F         1 UNK         0.0000 
     23 F23        -6.0270  -18.8023   26.9545 F         1 UNK         0.0000 
     24 F24        -5.5646  -16.9358   27.9001 F         1 UNK         0.0000 
     25 C25        -3.6532  -19.8218   27.8348 C.ar      1 UNK         0.0000 
     26 C26        -2.4732  -20.3914   28.3092 C.ar      1 UNK         0.0000 
     27 N27        -2.4997  -21.7381   28.6971 N.pl3     1 UNK         0.0000 
     28 S28        -1.3018  -22.9396   28.2017 S.o2      1 UNK         0.0000 
     29 C29        -1.6166  -23.0127   26.3432 C.3       1 UNK         0.0000 
     30 C30        -1.4632  -24.3477   25.6562 C.3       1 UNK         0.0000 
     31 C31        -2.8466  -23.7683   25.9004 C.3       1 UNK         0.0000 
     32 O32         0.0378  -22.3993   28.4445 O.2       1 UNK         0.0000 
     33 O33        -1.7239  -24.2032   28.8136 O.2       1 UNK         0.0000 
     34 C34        -1.3542  -19.5783   28.4946 C.ar      1 UNK         0.0000 
     35 C35        -1.4506  -18.1987   28.2999 C.ar      1 UNK         0.0000 
     36 H36         1.1017  -14.5437   25.0481 H         1 UNK         0.0000 
     37 H37         2.9666  -12.9595   25.1475 H         1 UNK         0.0000 
     38 H38         4.6703   -9.7327   26.8165 H         1 UNK         0.0000 
     39 H39         4.2134  -10.8495   25.5554 H         1 UNK         0.0000 
     40 H40         5.2870  -12.7603   26.8676 H         1 UNK         0.0000 
     41 H41         7.0456  -10.3893   25.9899 H         1 UNK         0.0000 
     42 H42         7.4501  -12.1662   25.9111 H         1 UNK         0.0000 
     43 H43         6.1777  -12.3283   29.0970 H         1 UNK         0.0000 
     44 H44         5.8836  -10.5396   28.9238 H         1 UNK         0.0000 
     45 H45         3.4361   -9.7491   28.9781 H         1 UNK         0.0000 
     46 H46         1.1558  -10.8679   29.9228 H         1 UNK         0.0000 
     47 H47        -0.4892  -13.0600   28.7602 H         1 UNK         0.0000 
     48 H48        -1.2656  -14.9416   28.8078 H         1 UNK         0.0000 
     49 H49        -3.3469  -15.8099   28.8552 H         1 UNK         0.0000 
     50 H50        -3.4766  -15.7557   27.1211 H         1 UNK         0.0000 
     51 H51        -4.5064  -20.4630   27.6674 H         1 UNK         0.0000 
     52 H52        -3.4172  -22.1399   28.8082 H         1 UNK         0.0000 
     53 H53        -1.3308  -22.0824   25.8563 H         1 UNK         0.0000 
     54 H54        -1.0602  -24.3674   24.6435 H         1 UNK         0.0000 
     55 H55        -1.1382  -25.2071   26.2446 H         1 UNK         0.0000 
     56 H56        -3.4850  -24.2291   26.6556 H         1 UNK         0.0000 
     57 H57        -3.4269  -23.3583   25.0748 H         1 UNK         0.0000 
     58 H58        -0.4300  -19.9927   28.8733 H         1 UNK         0.0000 
     59 H59        -0.5896  -17.5863   28.5268 H         1 UNK         0.0000 
@<TRIPOS>BOND
     1    1    2 2    
     2    2    3 1    
     3    2   17 am   BACKBONE|DICT|INTERRES
     4    3   16 ar   
     5    3    4 ar   
     6    4    5 ar   
     7    4   36 1    
     8    5    6 ar   
     9    5   37 1    
    10    6    7 ar   
    11    6   15 ar   
    12    7    8 1    
    13    7   13 ar   
    14    8    9 1    
    15    8   38 1    
    16    8   39 1    
    17    9   12 1    
    18    9   10 1    
    19    9   40 1    
    20   10   11 1    
    21   10   41 1    
    22   10   42 1    
    23   11   12 1    
    24   12   43 1    
    25   12   44 1    
    26   13   14 ar   
    27   13   45 1    
    28   14   15 ar   
    29   14   46 1    
    30   15   16 ar   
    31   16   47 1    
    32   17   18 1    
    33   17   48 1    
    34   18   19 1    
    35   18   49 1    
    36   18   50 1    
    37   19   35 ar   
    38   19   20 ar   
    39   20   21 1    
    40   20   25 ar   
    41   21   22 1    
    42   21   23 1    
    43   21   24 1    
    44   25   26 ar   
    45   25   51 1    
    46   26   27 1    
    47   26   34 ar   
    48   27   28 1    
    49   27   52 1    
    50   28   29 1    
    51   28   32 2    
    52   28   33 2    
    53   29   31 1    
    54   29   30 1    
    55   29   53 1    
    56   30   31 1    
    57   30   54 1    
    58   30   55 1    
    59   31   56 1    
    60   31   57 1    
    61   34   35 ar   
    62   34   58 1    
    63   35   59 1    
@<TRIPOS>SUBSTRUCTURE
     1 UNK         1 GROUP             0       ****    0 ROOT    
