/home/yujie/leadopt/data/result/selection/sEH/lig_8e.sdf:1
                    3D
 Schrodinger Suite 2020-3.
 56 59  0  0  1  0            999 V2000
   -1.3341  -15.7330   25.8973 O   0  0  0  0  0  0
   -1.0447  -15.1474   26.9395 C   0  0  0  0  0  0
    0.0242  -14.0714   26.9380 C   0  0  0  0  0  0
    0.4949  -13.4342   28.1005 C   0  0  0  0  0  0
    1.4167  -12.3813   28.0732 C   0  0  0  0  0  0
    1.8484  -11.9450   26.8155 C   0  0  0  0  0  0
    2.6986  -10.9199   26.4081 N   0  0  0  0  0  0
    3.4545   -9.9994   27.2395 C   0  0  0  0  0  0
    4.9663  -10.1330   27.0635 C   0  0  0  0  0  0
    5.7451  -10.5806   28.1313 C   0  0  0  0  0  0
    7.1317  -10.5949   28.0270 C   0  0  0  0  0  0
    7.8678  -10.9329   29.0970 F   0  0  0  0  0  0
    7.7598  -10.2255   26.8401 C   0  0  0  0  0  0
    6.9937   -9.7993   25.7590 C   0  0  0  0  0  0
    5.6059   -9.7331   25.8784 C   0  0  0  0  0  0
    2.7080  -10.8769   25.0349 C   0  0  0  0  0  0
    1.9705  -11.9029   24.5345 C   0  0  0  0  0  0
    1.3967  -12.5836   25.6278 C   0  0  0  0  0  0
    0.5272  -13.6641   25.7020 C   0  0  0  0  0  0
   -1.7421  -15.3607   28.0596 N   0  0  0  0  0  0
   -2.9218  -16.2190   28.1783 C   0  0  0  0  0  0
   -2.7062  -17.7365   28.0249 C   0  0  0  0  0  0
   -3.6911  -18.5757   27.4599 C   0  0  0  0  0  0
   -4.9567  -18.0128   26.7964 C   0  0  0  0  0  0
   -5.6820  -17.3329   27.6820 F   0  0  0  0  0  0
   -4.6261  -17.1998   25.7920 F   0  0  0  0  0  0
   -5.7292  -18.9714   26.2857 F   0  0  0  0  0  0
   -3.5028  -19.9665   27.4968 C   0  0  0  0  0  0
   -2.3367  -20.5375   28.0093 C   0  0  0  0  0  0
   -2.2872  -21.9456   28.0331 N   0  0  0  0  0  0
   -1.2332  -22.7754   28.2202 C   0  0  0  0  0  0
   -1.5288  -24.2891   28.2494 C   0  0  0  0  0  0
   -2.8437  -24.5287   28.2771 F   0  0  0  0  0  0
   -0.9627  -24.8340   29.3276 F   0  0  0  0  0  0
   -1.0095  -24.8564   27.1603 F   0  0  0  0  0  0
   -0.0652  -22.4013   28.3247 O   0  0  0  0  0  0
   -1.3295  -19.6927   28.4902 C   0  0  0  0  0  0
   -1.5162  -18.3104   28.4937 C   0  0  0  0  0  0
    0.1494  -13.7328   29.0758 H   0  0  0  0  0  0
    1.7461  -11.9143   28.9897 H   0  0  0  0  0  0
    3.1395   -8.9861   26.9862 H   0  0  0  0  0  0
    3.1706  -10.1450   28.2827 H   0  0  0  0  0  0
    5.2870  -10.8603   29.0678 H   0  0  0  0  0  0
    8.8366  -10.2459   26.7682 H   0  0  0  0  0  0
    7.4751   -9.4875   24.8435 H   0  0  0  0  0  0
    5.0512   -9.3268   25.0499 H   0  0  0  0  0  0
    3.2518  -10.1150   24.5018 H   0  0  0  0  0  0
    1.8234  -12.1225   23.4972 H   0  0  0  0  0  0
    0.2097  -14.1333   24.7829 H   0  0  0  0  0  0
   -1.4278  -14.9331   28.9346 H   0  0  0  0  0  0
   -3.6757  -15.8284   27.4970 H   0  0  0  0  0  0
   -3.3357  -16.0563   29.1746 H   0  0  0  0  0  0
   -4.2680  -20.6184   27.0992 H   0  0  0  0  0  0
   -3.1720  -22.3986   27.8572 H   0  0  0  0  0  0
   -0.4123  -20.0833   28.9067 H   0  0  0  0  0  0
   -0.7405  -17.6845   28.9129 H   0  0  0  0  0  0
  1  2  2  0  0  0
  2  3  1  0  0  0
  2 20  1  0  0  0
  3 19  1  0  0  0
  3  4  2  0  0  0
  4  5  1  0  0  0
  4 39  1  0  0  0
  5  6  2  0  0  0
  5 40  1  0  0  0
  6  7  1  0  0  0
  6 18  1  0  0  0
  7  8  1  0  0  0
  7 16  1  0  0  0
  8  9  1  0  0  0
  8 41  1  0  0  0
  8 42  1  0  0  0
  9 15  1  0  0  0
  9 10  2  0  0  0
 10 11  1  0  0  0
 10 43  1  0  0  0
 11 12  1  0  0  0
 11 13  2  0  0  0
 13 14  1  0  0  0
 13 44  1  0  0  0
 14 15  2  0  0  0
 14 45  1  0  0  0
 15 46  1  0  0  0
 16 17  2  0  0  0
 16 47  1  0  0  0
 17 18  1  0  0  0
 17 48  1  0  0  0
 18 19  2  0  0  0
 19 49  1  0  0  0
 20 21  1  0  0  0
 20 50  1  0  0  0
 21 22  1  0  0  0
 21 51  1  0  0  0
 21 52  1  0  0  0
 22 38  1  0  0  0
 22 23  2  0  0  0
 23 24  1  0  0  0
 23 28  1  0  0  0
 24 25  1  0  0  0
 24 26  1  0  0  0
 24 27  1  0  0  0
 28 29  2  0  0  0
 28 53  1  0  0  0
 29 30  1  0  0  0
 29 37  1  0  0  0
 30 31  1  0  0  0
 30 54  1  0  0  0
 31 32  1  0  0  0
 31 36  2  0  0  0
 32 33  1  0  0  0
 32 34  1  0  0  0
 32 35  1  0  0  0
 37 38  2  0  0  0
 37 55  1  0  0  0
 38 56  1  0  0  0
M  END
> <s_m_source_file>
/home/yujie/leadopt/data/result/selection/sEH/lig_8e.sdf

> <i_m_source_file_index>
1

> <i_lp_mmshare_version>
51139

> <i_f3d_flags>
0

> <s_epik_input>
RkMoRikoRilDKD1PKVtOSF1jKFtjSF1bY0hdMSlbY0hdYyhDKEYpKEYpRiljMVtDSDJdW05IXUMoPU8pYyhbY0hdW2NIXTIpW2NIXWMoYzIzKVtjSF1bY0hdbjNbQ0gyXWM0W2NIXWMoRilbY0hdW2NIXVtjSF00

> <s_epik_cmdline>
J2VwaWtfcHl0aG9uJywgJy1waHQnLCAnMi4wJywgJy1waCcsICc3LjAnLCAnLXRuJywgJzgnLCAnLW1hJywgJzIwMCcsICctaW1hZScsICc8aW5maWxlLm1hZT4nLCAnLW9tYWUnLCAnPG91dGZpbGUubWFlPic=

> <r_lp_tautomer_probability>
1

> <r_epik_Ionization_Penalty>
  0.0000

> <r_epik_Ionization_Penalty_Charging>
  0.0000

> <r_epik_Ionization_Penalty_Neutral>
  0.0000

> <r_epik_State_Penalty>
 -0.0000

> <r_epik_Charging_Adjusted_Penalty>
0

> <i_epik_Tot_Q>
0

> <i_epik_Tot_abs_Q>
0

> <s_lp_Force_Field>
OPLS3e

> <r_lp_Energy>
52.3362

> <b_lp_Chiralities_Consistent>
1

> <s_lp_Variant>
/home/yujie/leadopt/data/result/selection/sEH/lig_8e.sdf:1-1

> <s_i_glide_gridfile>
glide-grid_sEH

> <i_i_glide_lignum>
1

> <i_i_glide_rotatable_bonds>
10

> <r_i_docking_score>
-12.416321804146

> <r_i_glide_ligand_efficiency>
-0.326745310635421

> <r_i_glide_ligand_efficiency_sa>
-1.0985096973112

> <r_i_glide_ligand_efficiency_ln>
-2.67732423215584

> <r_i_glide_gscore>
-12.416321804146

> <r_i_glide_lipo>
-4.88437510832149

> <r_i_glide_hbond>
-0.628162542517496

> <r_i_glide_metal>
-0

> <r_i_glide_rewards>
-2.69901213096731

> <r_i_glide_evdw>
-48.8860054016113

> <r_i_glide_ecoul>
-14.2037191390991

> <r_i_glide_erotb>
0.572141424216076

> <r_i_glide_esite>
-0.202055305610354

> <r_i_glide_emodel>
-109.46595313282

> <r_i_glide_energy>
-63.0897245407104

> <r_i_glide_einternal>
9.85371494293213

> <i_i_glide_confnum>
82

> <i_i_glide_posenum>
395

> <r_i_glide_eff_state_penalty>
-0

$$$$
