@<TRIPOS>MOLECULE
/home/yujie/leadopt/data/result/selection/sEH/lig_9b.sdf:1
53   56    1
SMALL
USER_CHARGES


@<TRIPOS>ATOM
      1 O1         -1.3295  -15.3330   25.6754 O.2       1 UNK         0.0000 
      2 C2         -1.0097  -14.8956   26.7797 C.2       1 UNK         0.0000 
      3 C3          0.1146  -13.8898   26.8910 C.ar      1 UNK         0.0000 
      4 C4          0.9403  -13.6608   25.7809 C.ar      1 UNK         0.0000 
      5 C5          1.9408  -12.6927   25.7706 C.ar      1 UNK         0.0000 
      6 C6          2.1043  -11.9350   26.9342 C.ar      1 UNK         0.0000 
      7 N7          2.9623  -10.8876   27.2267 N.pl3     1 UNK         0.0000 
      8 C8          3.9689  -10.3259   26.3365 C.3       1 UNK         0.0000 
      9 C9          5.3365  -10.9783   26.4680 C.ar      1 UNK         0.0000 
     10 C10         5.8887  -11.6844   25.3939 C.ar      1 UNK         0.0000 
     11 C11         7.1539  -12.2604   25.5097 C.ar      1 UNK         0.0000 
     12 F12         7.6858  -12.9394   24.4706 F         1 UNK         0.0000 
     13 C13         7.8714  -12.1335   26.6986 C.ar      1 UNK         0.0000 
     14 C14         7.3250  -11.4355   27.7740 C.ar      1 UNK         0.0000 
     15 C15         6.0620  -10.8600   27.6584 C.ar      1 UNK         0.0000 
     16 C16         2.7767  -10.5125   28.5367 C.ar      1 UNK         0.0000 
     17 C17         1.7610  -11.2474   29.0981 C.ar      1 UNK         0.0000 
     18 C18         1.3045  -12.1542   28.0944 C.ar      1 UNK         0.0000 
     19 C19         0.3055  -13.1336   28.0568 C.ar      1 UNK         0.0000 
     20 N20        -1.6916  -15.2092   27.8972 N.am      1 UNK         0.0000 
     21 C21        -2.9513  -15.9560   27.9503 C.3       1 UNK         0.0000 
     22 C22        -2.8695  -17.4810   28.0165 C.ar      1 UNK         0.0000 
     23 C23        -4.0514  -18.2142   27.8965 C.ar      1 UNK         0.0000 
     24 F24        -5.2324  -17.5824   27.7021 F         1 UNK         0.0000 
     25 C25        -4.0305  -19.6021   27.9919 C.ar      1 UNK         0.0000 
     26 C26        -2.8465  -20.3109   28.2043 C.ar      1 UNK         0.0000 
     27 N27        -2.9738  -21.6719   28.3257 N.2       1 UNK         0.0000 
     28 S28        -1.8309  -22.7303   28.1542 S.o2      1 UNK         0.0000 
     29 C29        -1.5907  -22.7709   26.2961 C.3       1 UNK         0.0000 
     30 O30        -2.2899  -24.0767   28.5004 O.2       1 UNK         0.0000 
     31 O31        -0.5285  -22.3389   28.6972 O.2       1 UNK         0.0000 
     32 C32        -1.6603  -19.5630   28.2968 C.ar      1 UNK         0.0000 
     33 C33        -1.6669  -18.1693   28.2085 C.ar      1 UNK         0.0000 
     34 H34         0.7995  -14.2340   24.8740 H         1 UNK         0.0000 
     35 H35         2.5448  -12.5312   24.8898 H         1 UNK         0.0000 
     36 H36         3.6000  -10.3899   25.3115 H         1 UNK         0.0000 
     37 H37         4.0540   -9.2634   26.5477 H         1 UNK         0.0000 
     38 H38         5.3453  -11.7892   24.4665 H         1 UNK         0.0000 
     39 H39         8.8486  -12.5832   26.7824 H         1 UNK         0.0000 
     40 H40         7.8718  -11.3315   28.6988 H         1 UNK         0.0000 
     41 H41         5.6568  -10.3138   28.4983 H         1 UNK         0.0000 
     42 H42         3.3893   -9.7329   28.9641 H         1 UNK         0.0000 
     43 H43         1.3999  -11.1492   30.1100 H         1 UNK         0.0000 
     44 H44        -0.3131  -13.2739   28.9279 H         1 UNK         0.0000 
     45 H45        -1.3289  -14.9327   28.8116 H         1 UNK         0.0000 
     46 H46        -3.5810  -15.6960   27.0984 H         1 UNK         0.0000 
     47 H47        -3.4888  -15.6184   28.8379 H         1 UNK         0.0000 
     48 H48        -4.9656  -20.1360   27.8996 H         1 UNK         0.0000 
     49 H49        -0.7921  -23.4742   26.0705 H         1 UNK         0.0000 
     50 H50        -1.3290  -21.7719   25.9560 H         1 UNK         0.0000 
     51 H51        -2.5248  -23.0930   25.8391 H         1 UNK         0.0000 
     52 H52        -0.7080  -20.0365   28.4658 H         1 UNK         0.0000 
     53 H53        -0.7337  -17.6335   28.3071 H         1 UNK         0.0000 
@<TRIPOS>BOND
     1    1    2 2    
     2    2    3 1    
     3    2   20 am   BACKBONE|DICT|INTERRES
     4    3   19 ar   
     5    3    4 ar   
     6    4    5 ar   
     7    4   34 1    
     8    5    6 ar   
     9    5   35 1    
    10    6    7 ar   
    11    6   18 ar   
    12    7    8 1    
    13    7   16 ar   
    14    8    9 1    
    15    8   36 1    
    16    8   37 1    
    17    9   15 ar   
    18    9   10 ar   
    19   10   11 ar   
    20   10   38 1    
    21   11   12 1    
    22   11   13 ar   
    23   13   14 ar   
    24   13   39 1    
    25   14   15 ar   
    26   14   40 1    
    27   15   41 1    
    28   16   17 ar   
    29   16   42 1    
    30   17   18 ar   
    31   17   43 1    
    32   18   19 ar   
    33   19   44 1    
    34   20   21 1    
    35   20   45 1    
    36   21   22 1    
    37   21   46 1    
    38   21   47 1    
    39   22   33 ar   
    40   22   23 ar   
    41   23   24 1    
    42   23   25 ar   
    43   25   26 ar   
    44   25   48 1    
    45   26   27 1    
    46   26   32 ar   
    47   27   28 1    
    48   28   29 1    
    49   28   30 2    
    50   28   31 2    
    51   29   49 1    
    52   29   50 1    
    53   29   51 1    
    54   32   33 ar   
    55   32   52 1    
    56   33   53 1    
@<TRIPOS>SUBSTRUCTURE
     1 UNK         1 GROUP             0       ****    0 ROOT    
