/home/yujie/leadopt/data/result/selection/sEH/lig_8b.sdf:1
                    3D
 Schrodinger Suite 2020-3.
 56 59  0  0  1  0            999 V2000
   -1.3291  -15.3329   25.6500 O   0  0  0  0  0  0
   -0.9288  -14.9144   26.7373 C   0  0  0  0  0  0
    0.1463  -13.8512   26.7941 C   0  0  0  0  0  0
    0.8583  -13.5366   25.6291 C   0  0  0  0  0  0
    1.7773  -12.4928   25.5657 C   0  0  0  0  0  0
    1.9691  -11.7421   26.7304 C   0  0  0  0  0  0
    2.7481  -10.6224   26.9725 N   0  0  0  0  0  0
    3.6352   -9.9777   26.0146 C   0  0  0  0  0  0
    5.0075  -10.6289   25.9401 C   0  0  0  0  0  0
    5.8397  -10.6319   27.0650 C   0  0  0  0  0  0
    7.0885  -11.2460   27.0132 C   0  0  0  0  0  0
    7.8703  -11.2625   28.1135 F   0  0  0  0  0  0
    7.5254  -11.8445   25.8320 C   0  0  0  0  0  0
    6.7052  -11.8347   24.7027 C   0  0  0  0  0  0
    5.4472  -11.2312   24.7564 C   0  0  0  0  0  0
    2.6257  -10.2701   28.2976 C   0  0  0  0  0  0
    1.7414  -11.1146   28.9292 C   0  0  0  0  0  0
    1.2966  -12.0544   27.9481 C   0  0  0  0  0  0
    0.3925  -13.1218   27.9684 C   0  0  0  0  0  0
   -1.4890  -15.2950   27.8972 N   0  0  0  0  0  0
   -2.7062  -16.0957   28.0328 C   0  0  0  0  0  0
   -2.5826  -17.6231   27.8902 C   0  0  0  0  0  0
   -3.6583  -18.4056   27.4226 C   0  0  0  0  0  0
   -4.9346  -17.7818   26.8416 C   0  0  0  0  0  0
   -5.5616  -17.0791   27.7817 F   0  0  0  0  0  0
   -4.6429  -16.9819   25.8143 F   0  0  0  0  0  0
   -5.7830  -18.7012   26.3855 F   0  0  0  0  0  0
   -3.5660  -19.8019   27.5066 C   0  0  0  0  0  0
   -2.4346  -20.4637   27.9869 C   0  0  0  0  0  0
   -2.5483  -21.8284   28.1014 N   0  5  0  0  0  0
   -1.4053  -22.8907   28.2529 S   0  0  0  0  0  0
   -1.1263  -23.4154   26.4760 C   0  0  0  0  0  0
   -1.8807  -24.0983   28.9328 O   0  0  0  0  0  0
   -0.1054  -22.3820   28.6929 O   0  0  0  0  0  0
   -1.3389  -19.6652   28.3417 C   0  0  0  0  0  0
   -1.4109  -18.2709   28.2984 C   0  0  0  0  0  0
    0.6809  -14.0972   24.7212 H   0  0  0  0  0  0
    2.2887  -12.2624   24.6424 H   0  0  0  0  0  0
    3.1459   -9.9763   25.0388 H   0  0  0  0  0  0
    3.7402   -8.9329   26.2925 H   0  0  0  0  0  0
    5.5195  -10.1677   27.9878 H   0  0  0  0  0  0
    8.4961  -12.3166   25.7959 H   0  0  0  0  0  0
    7.0416  -12.3010   23.7886 H   0  0  0  0  0  0
    4.8165  -11.2378   23.8785 H   0  0  0  0  0  0
    3.1833   -9.4289   28.6825 H   0  0  0  0  0  0
    1.4454  -11.0572   29.9654 H   0  0  0  0  0  0
   -0.1351  -13.3320   28.8860 H   0  0  0  0  0  0
   -1.1099  -14.9540   28.7840 H   0  0  0  0  0  0
   -3.4485  -15.6758   27.3574 H   0  0  0  0  0  0
   -3.0897  -15.9085   29.0373 H   0  0  0  0  0  0
   -4.4074  -20.4066   27.1995 H   0  0  0  0  0  0
   -0.3188  -24.1435   26.4546 H   0  0  0  0  0  0
   -0.8685  -22.5342   25.8946 H   0  0  0  0  0  0
   -2.0477  -23.8589   26.1017 H   0  0  0  0  0  0
   -0.4314  -20.0987   28.7274 H   0  0  0  0  0  0
   -0.5644  -17.6968   28.6473 H   0  0  0  0  0  0
  1  2  2  0  0  0
  2  3  1  0  0  0
  2 20  1  0  0  0
  3 19  1  0  0  0
  3  4  2  0  0  0
  4  5  1  0  0  0
  4 37  1  0  0  0
  5  6  2  0  0  0
  5 38  1  0  0  0
  6  7  1  0  0  0
  6 18  1  0  0  0
  7  8  1  0  0  0
  7 16  1  0  0  0
  8  9  1  0  0  0
  8 39  1  0  0  0
  8 40  1  0  0  0
  9 15  1  0  0  0
  9 10  2  0  0  0
 10 11  1  0  0  0
 10 41  1  0  0  0
 11 12  1  0  0  0
 11 13  2  0  0  0
 13 14  1  0  0  0
 13 42  1  0  0  0
 14 15  2  0  0  0
 14 43  1  0  0  0
 15 44  1  0  0  0
 16 17  2  0  0  0
 16 45  1  0  0  0
 17 18  1  0  0  0
 17 46  1  0  0  0
 18 19  2  0  0  0
 19 47  1  0  0  0
 20 21  1  0  0  0
 20 48  1  0  0  0
 21 22  1  0  0  0
 21 49  1  0  0  0
 21 50  1  0  0  0
 22 36  1  0  0  0
 22 23  2  0  0  0
 23 24  1  0  0  0
 23 28  1  0  0  0
 24 25  1  0  0  0
 24 26  1  0  0  0
 24 27  1  0  0  0
 28 29  2  0  0  0
 28 51  1  0  0  0
 29 30  1  0  0  0
 29 35  1  0  0  0
 30 31  1  0  0  0
 31 32  1  0  0  0
 31 33  2  0  0  0
 31 34  2  0  0  0
 32 52  1  0  0  0
 32 53  1  0  0  0
 32 54  1  0  0  0
 35 36  2  0  0  0
 35 55  1  0  0  0
 36 56  1  0  0  0
M  CHG  1  30  -1
M  END
> <s_m_source_file>
/home/yujie/leadopt/data/result/selection/sEH/lig_8b.sdf

> <i_m_source_file_index>
1

> <i_lp_mmshare_version>
51139

> <i_f3d_flags>
0

> <s_epik_input>
W0NIM11TKD1PKSg9TylbTkhdYyhbY0hdW2NIXTEpW2NIXWMoQyhGKShGKUYpYzFbQ0gyXVtOSF1DKD1PKWMoW2NIXVtjSF0yKVtjSF1jKGMyMylbY0hdW2NIXW4zW0NIMl1jNFtjSF1jKEYpW2NIXVtjSF1bY0hdNA==

> <s_epik_cmdline>
J2VwaWtfcHl0aG9uJywgJy1waHQnLCAnMi4wJywgJy1waCcsICc3LjAnLCAnLXRuJywgJzgnLCAnLW1hJywgJzIwMCcsICctaW1hZScsICc8aW5maWxlLm1hZT4nLCAnLW9tYWUnLCAnPG91dGZpbGUubWFlPic=

> <r_epik_Ionization_Penalty>
  1.1039

> <r_epik_Ionization_Penalty_Charging>
  1.1039

> <r_epik_Ionization_Penalty_Neutral>
  0.0000

> <r_epik_State_Penalty>
  1.1613

> <r_epik_Charging_Adjusted_Penalty>
2.26518

> <i_epik_Tot_Q>
-1

> <i_epik_Tot_abs_Q>
1

> <s_lp_Force_Field>
OPLS3e

> <r_lp_Energy>
37.8497

> <b_lp_Chiralities_Consistent>
1

> <s_lp_Variant>
/home/yujie/leadopt/data/result/selection/sEH/lig_8b.sdf:1-2

> <s_i_glide_gridfile>
glide-grid_sEH

> <i_i_glide_lignum>
2

> <i_i_glide_rotatable_bonds>
9

> <r_i_docking_score>
-12.0835814671705

> <r_i_glide_ligand_efficiency>
-0.335655040754737

> <r_i_glide_ligand_efficiency_sa>
-1.10830852397302

> <r_i_glide_ligand_efficiency_ln>
-2.63631101549255

> <r_i_glide_gscore>
-13.2448614671705

> <r_i_glide_lipo>
-4.88790838609172

> <r_i_glide_hbond>
-0.72

> <r_i_glide_metal>
-0

> <r_i_glide_rewards>
-2.69840894932726

> <r_i_glide_evdw>
-58.1285247802734

> <r_i_glide_ecoul>
-15.7792701721191

> <r_i_glide_erotb>
0.534772633079979

> <r_i_glide_esite>
-0.2

> <r_i_glide_emodel>
-130.496484460503

> <r_i_glide_energy>
-73.9077949523926

> <r_i_glide_einternal>
8.32121658325195

> <i_i_glide_confnum>
81

> <i_i_glide_posenum>
161

> <r_i_glide_eff_state_penalty>
1.16128

$$$$
