@<TRIPOS>MOLECULE
/home/yujie/leadopt/data/result/selection/sEH/lig_11k.sdf:1
63   66    1
SMALL
USER_CHARGES


@<TRIPOS>ATOM
      1 O1         -1.3616  -15.3330   25.6493 O.2       1 UNK         0.0000 
      2 C2         -0.9290  -14.9353   26.7302 C.2       1 UNK         0.0000 
      3 C3          0.1416  -13.8647   26.7691 C.ar      1 UNK         0.0000 
      4 C4          0.7628  -13.4867   25.5708 C.ar      1 UNK         0.0000 
      5 C5          1.7020  -12.4637   25.4970 C.ar      1 UNK         0.0000 
      6 C6          2.0373  -11.8181   26.6914 C.ar      1 UNK         0.0000 
      7 N7          2.9174  -10.7770   26.9406 N.pl3     1 UNK         0.0000 
      8 C8          3.7234  -10.0972   25.9354 C.3       1 UNK         0.0000 
      9 C9          4.8548  -11.0210   25.4265 C.3       1 UNK         0.0000 
     10 N10         5.5745  -10.4482   24.1791 N.4       1 UNK         0.0000 
     11 C11         4.6661  -10.3798   22.9286 C.3       1 UNK         0.0000 
     12 C12         6.2848   -9.1010   24.4410 C.3       1 UNK         0.0000 
     13 C13         2.9223  -10.5091   28.2913 C.ar      1 UNK         0.0000 
     14 C14         2.0247  -11.3331   28.9353 C.ar      1 UNK         0.0000 
     15 C15         1.4448  -12.1790   27.9366 C.ar      1 UNK         0.0000 
     16 C16         0.4882  -13.2036   27.9602 C.ar      1 UNK         0.0000 
     17 N17        -1.4286  -15.3710   27.8973 N.am      1 UNK         0.0000 
     18 C18        -2.6338  -16.1884   28.0848 C.3       1 UNK         0.0000 
     19 C19        -2.5051  -17.7225   27.9786 C.ar      1 UNK         0.0000 
     20 C20        -3.5645  -18.5250   27.4974 C.ar      1 UNK         0.0000 
     21 C21        -4.8639  -17.9164   26.9540 C.3       1 UNK         0.0000 
     22 F22        -4.6060  -17.1440   25.8973 F         1 UNK         0.0000 
     23 F23        -5.7292  -18.8468   26.5571 F         1 UNK         0.0000 
     24 F24        -5.4546  -17.1858   27.8969 F         1 UNK         0.0000 
     25 C25        -3.4238  -19.9227   27.4972 C.ar      1 UNK         0.0000 
     26 C26        -2.2434  -20.5452   27.8974 C.ar      1 UNK         0.0000 
     27 N27        -2.1407  -21.9325   27.6917 N.pl3     1 UNK         0.0000 
     28 S28        -1.1510  -23.0531   28.6613 S.o2      1 UNK         0.0000 
     29 C29        -1.1264  -24.6428   27.6280 C.3       1 UNK         0.0000 
     30 C30        -2.3276  -24.9781   26.7758 C.3       1 UNK         0.0000 
     31 C31        -1.0382  -24.4987   26.1278 C.3       1 UNK         0.0000 
     32 O32         0.2186  -22.5333   28.6970 O.2       1 UNK         0.0000 
     33 O33        -1.8898  -23.3328   29.8968 O.2       1 UNK         0.0000 
     34 C34        -1.2036  -19.7461   28.3741 C.ar      1 UNK         0.0000 
     35 C35        -1.3290  -18.3537   28.4054 C.ar      1 UNK         0.0000 
     36 H36         0.5031  -13.9850   24.6466 H         1 UNK         0.0000 
     37 H37         2.1378  -12.1860   24.5491 H         1 UNK         0.0000 
     38 H38         4.1232   -9.1818   26.3677 H         1 UNK         0.0000 
     39 H39         3.0420   -9.8005   25.1374 H         1 UNK         0.0000 
     40 H40         4.5000  -12.0064   25.1188 H         1 UNK         0.0000 
     41 H41         5.6348  -11.1662   26.1774 H         1 UNK         0.0000 
     42 H42         3.9162   -9.6046   23.0920 H         1 UNK         0.0000 
     43 H43         4.2020  -11.3592   22.7883 H         1 UNK         0.0000 
     44 H44         5.2999  -10.1351   22.0745 H         1 UNK         0.0000 
     45 H45         5.5247   -8.3387   24.6193 H         1 UNK         0.0000 
     46 H46         6.9319   -9.2333   25.3102 H         1 UNK         0.0000 
     47 H47         6.8737   -8.8657   23.5530 H         1 UNK         0.0000 
     48 H48         3.5631   -9.7332   28.6861 H         1 UNK         0.0000 
     49 H49         1.8158  -11.3286   29.9953 H         1 UNK         0.0000 
     50 H50         0.0186  -13.4459   28.9008 H         1 UNK         0.0000 
     51 H51        -1.0236  -15.0350   28.7740 H         1 UNK         0.0000 
     52 H52        -2.9927  -15.9798   29.0942 H         1 UNK         0.0000 
     53 H53        -3.4038  -15.7946   27.4244 H         1 UNK         0.0000 
     54 H54        -4.2225  -20.5412   27.1139 H         1 UNK         0.0000 
     55 H55        -2.9925  -22.3502   27.3557 H         1 UNK         0.0000 
     56 H56        -0.5796  -25.4331   28.1398 H         1 UNK         0.0000 
     57 H57        -2.6082  -26.0272   26.6734 H         1 UNK         0.0000 
     58 H58        -3.1972  -24.3226   26.7898 H         1 UNK         0.0000 
     59 H59        -0.9944  -23.4979   25.6957 H         1 UNK         0.0000 
     60 H60        -0.4237  -25.2114   25.5761 H         1 UNK         0.0000 
     61 H61        -0.2701  -20.1810   28.6982 H         1 UNK         0.0000 
     62 H62        -0.5039  -17.7651   28.7812 H         1 UNK         0.0000 
     63 H63         6.3046  -11.1156   23.9564 H         1 UNK         0.0000 
@<TRIPOS>BOND
     1    1    2 2    
     2    2    3 1    
     3    2   17 am   BACKBONE|DICT|INTERRES
     4    3   16 ar   
     5    3    4 ar   
     6    4    5 ar   
     7    4   36 1    
     8    5    6 ar   
     9    5   37 1    
    10    6    7 ar   
    11    6   15 ar   
    12    7    8 1    
    13    7   13 ar   
    14    8    9 1    
    15    8   38 1    
    16    8   39 1    
    17    9   10 1    
    18    9   40 1    
    19    9   41 1    
    20   10   11 1    
    21   10   12 1    
    22   10   63 1    
    23   11   42 1    
    24   11   43 1    
    25   11   44 1    
    26   12   45 1    
    27   12   46 1    
    28   12   47 1    
    29   13   14 ar   
    30   13   48 1    
    31   14   15 ar   
    32   14   49 1    
    33   15   16 ar   
    34   16   50 1    
    35   17   18 1    
    36   17   51 1    
    37   18   19 1    
    38   18   52 1    
    39   18   53 1    
    40   19   35 ar   
    41   19   20 ar   
    42   20   21 1    
    43   20   25 ar   
    44   21   22 1    
    45   21   23 1    
    46   21   24 1    
    47   25   26 ar   
    48   25   54 1    
    49   26   27 1    
    50   26   34 ar   
    51   27   28 1    
    52   27   55 1    
    53   28   29 1    
    54   28   32 2    
    55   28   33 2    
    56   29   31 1    
    57   29   30 1    
    58   29   56 1    
    59   30   31 1    
    60   30   57 1    
    61   30   58 1    
    62   31   59 1    
    63   31   60 1    
    64   34   35 ar   
    65   34   61 1    
    66   35   62 1    
@<TRIPOS>SUBSTRUCTURE
     1 UNK         1 GROUP             0       ****    0 ROOT    
