@<TRIPOS>MOLECULE
/home/yujie/leadopt/data/result/selection/sEH/lig_11g.sdf:1
60   63    1
SMALL
USER_CHARGES


@<TRIPOS>ATOM
      1 O1         -1.3294  -15.3344   25.6553 O.2       1 UNK         0.0000 
      2 C2         -0.9557  -14.9162   26.7510 C.2       1 UNK         0.0000 
      3 C3          0.1394  -13.8748   26.8012 C.ar      1 UNK         0.0000 
      4 C4          0.8146  -13.5485   25.6159 C.ar      1 UNK         0.0000 
      5 C5          1.7663  -12.5391   25.5410 C.ar      1 UNK         0.0000 
      6 C6          2.0535  -11.8469   26.7194 C.ar      1 UNK         0.0000 
      7 N7          2.9256  -10.7958   26.9608 N.pl3     1 UNK         0.0000 
      8 C8          3.7831  -10.1419   25.9698 C.3       1 UNK         0.0000 
      9 C9          5.2664  -10.6311   25.9852 C.3       1 UNK         0.0000 
     10 C10         6.0865   -9.8822   24.9013 C.3       1 UNK         0.0000 
     11 F11         5.9224   -8.5591   24.9792 F         1 UNK         0.0000 
     12 F12         5.7236  -10.2446   23.6691 F         1 UNK         0.0000 
     13 F13         7.3965  -10.1149   25.0164 F         1 UNK         0.0000 
     14 C14         5.4450  -12.1741   25.8780 C.3       1 UNK         0.0000 
     15 F15         4.9281  -12.8109   26.9273 F         1 UNK         0.0000 
     16 F16         4.8565  -12.6631   24.7849 F         1 UNK         0.0000 
     17 F17         6.7286  -12.5338   25.8268 F         1 UNK         0.0000 
     18 C18         2.8801  -10.4899   28.3007 C.ar      1 UNK         0.0000 
     19 C19         1.9481  -11.2803   28.9409 C.ar      1 UNK         0.0000 
     20 C20         1.4103  -12.1624   27.9553 C.ar      1 UNK         0.0000 
     21 C21         0.4518  -13.1854   27.9809 C.ar      1 UNK         0.0000 
     22 N22        -1.5591  -15.2922   27.8953 N.am      1 UNK         0.0000 
     23 C23        -2.7655  -16.1317   27.9619 C.3       1 UNK         0.0000 
     24 C24        -2.5884  -17.6645   27.9352 C.ar      1 UNK         0.0000 
     25 C25        -3.6182  -18.5267   27.4847 C.ar      1 UNK         0.0000 
     26 C26        -4.8864  -18.0042   26.7974 C.3       1 UNK         0.0000 
     27 F27        -5.6958  -18.9845   26.3939 F         1 UNK         0.0000 
     28 F28        -5.5729  -17.2398   27.6396 F         1 UNK         0.0000 
     29 F29        -4.5666  -17.2944   25.7163 F         1 UNK         0.0000 
     30 C30        -3.4982  -19.9088   27.7006 C.ar      1 UNK         0.0000 
     31 C31        -2.3679  -20.4548   28.3028 C.ar      1 UNK         0.0000 
     32 N32        -2.3946  -21.8001   28.6946 N.pl3     1 UNK         0.0000 
     33 S33        -1.2191  -22.9993   28.1431 S.o2      1 UNK         0.0000 
     34 C34        -1.6205  -23.0825   26.2999 C.3       1 UNK         0.0000 
     35 C35        -1.4734  -24.4215   25.6230 C.3       1 UNK         0.0000 
     36 C36        -2.8538  -23.8560   25.9020 C.3       1 UNK         0.0000 
     37 O37         0.1299  -22.4555   28.3108 O.2       1 UNK         0.0000 
     38 O38        -1.6042  -24.2623   28.7800 O.2       1 UNK         0.0000 
     39 C39        -1.3062  -19.6148   28.6308 C.ar      1 UNK         0.0000 
     40 C40        -1.4134  -18.2340   28.4467 C.ar      1 UNK         0.0000 
     41 H41         0.5917  -14.0747   24.6980 H         1 UNK         0.0000 
     42 H42         2.2518  -12.3104   24.6035 H         1 UNK         0.0000 
     43 H43         3.7312   -9.0690   26.1640 H         1 UNK         0.0000 
     44 H44         3.3351  -10.2761   24.9837 H         1 UNK         0.0000 
     45 H45         5.6883  -10.3378   26.9486 H         1 UNK         0.0000 
     46 H46         3.5177   -9.7129   28.6913 H         1 UNK         0.0000 
     47 H47         1.6975  -11.2356   29.9914 H         1 UNK         0.0000 
     48 H48        -0.0477  -13.4179   28.9094 H         1 UNK         0.0000 
     49 H49        -1.2315  -14.9309   28.7950 H         1 UNK         0.0000 
     50 H50        -3.2516  -15.8972   28.9122 H         1 UNK         0.0000 
     51 H51        -3.4654  -15.7925   27.1978 H         1 UNK         0.0000 
     52 H52        -4.3085  -20.5723   27.4323 H         1 UNK         0.0000 
     53 H53        -3.3129  -22.1957   28.8203 H         1 UNK         0.0000 
     54 H54        -1.3627  -22.1533   25.7989 H         1 UNK         0.0000 
     55 H55        -1.1048  -24.4506   24.5985 H         1 UNK         0.0000 
     56 H56        -1.1117  -25.2660   26.2121 H         1 UNK         0.0000 
     57 H57        -3.4602  -24.3041   26.6873 H         1 UNK         0.0000 
     58 H58        -3.4615  -23.4789   25.0776 H         1 UNK         0.0000 
     59 H59        -0.4180  -20.0184   29.0995 H         1 UNK         0.0000 
     60 H60        -0.6029  -17.6019   28.7829 H         1 UNK         0.0000 
@<TRIPOS>BOND
     1    1    2 2    
     2    2    3 1    
     3    2   22 am   BACKBONE|DICT|INTERRES
     4    3   21 ar   
     5    3    4 ar   
     6    4    5 ar   
     7    4   41 1    
     8    5    6 ar   
     9    5   42 1    
    10    6    7 ar   
    11    6   20 ar   
    12    7    8 1    
    13    7   18 ar   
    14    8    9 1    
    15    8   43 1    
    16    8   44 1    
    17    9   10 1    
    18    9   14 1    
    19    9   45 1    
    20   10   11 1    
    21   10   12 1    
    22   10   13 1    
    23   14   15 1    
    24   14   16 1    
    25   14   17 1    
    26   18   19 ar   
    27   18   46 1    
    28   19   20 ar   
    29   19   47 1    
    30   20   21 ar   
    31   21   48 1    
    32   22   23 1    
    33   22   49 1    
    34   23   24 1    
    35   23   50 1    
    36   23   51 1    
    37   24   40 ar   
    38   24   25 ar   
    39   25   26 1    
    40   25   30 ar   
    41   26   27 1    
    42   26   28 1    
    43   26   29 1    
    44   30   31 ar   
    45   30   52 1    
    46   31   32 1    
    47   31   39 ar   
    48   32   33 1    
    49   32   53 1    
    50   33   34 1    
    51   33   37 2    
    52   33   38 2    
    53   34   36 1    
    54   34   35 1    
    55   34   54 1    
    56   35   36 1    
    57   35   55 1    
    58   35   56 1    
    59   36   57 1    
    60   36   58 1    
    61   39   40 ar   
    62   39   59 1    
    63   40   60 1    
@<TRIPOS>SUBSTRUCTURE
     1 UNK         1 GROUP             0       ****    0 ROOT    
