@<TRIPOS>MOLECULE
/home/yujie/leadopt/data/result/selection/sEH/lig_11i.sdf:1
57   60    1
SMALL
USER_CHARGES


@<TRIPOS>ATOM
      1 O1         -1.3290  -15.3328   25.6983 O.2       1 UNK         0.0000 
      2 C2         -1.0291  -14.8046   26.7705 C.2       1 UNK         0.0000 
      3 C3          0.0555  -13.7481   26.8322 C.ar      1 UNK         0.0000 
      4 C4          0.7260  -13.3913   25.6542 C.ar      1 UNK         0.0000 
      5 C5          1.7273  -12.4244   25.6172 C.ar      1 UNK         0.0000 
      6 C6          2.0714  -11.8105   26.8270 C.ar      1 UNK         0.0000 
      7 N7          3.0298  -10.8518   27.1242 N.pl3     1 UNK         0.0000 
      8 C8          3.9920  -10.2713   26.1895 C.3       1 UNK         0.0000 
      9 C9          5.1797  -11.2179   25.9283 C.3       1 UNK         0.0000 
     10 O10         4.7468  -12.3449   25.1782 O.3       1 UNK         0.0000 
     11 C11         5.7608  -13.3134   24.9586 C.3       1 UNK         0.0000 
     12 C12         2.9868  -10.5826   28.4746 C.ar      1 UNK         0.0000 
     13 C13         1.9965  -11.3297   29.0739 C.ar      1 UNK         0.0000 
     14 C14         1.4069  -12.1335   28.0472 C.ar      1 UNK         0.0000 
     15 C15         0.3919  -13.1009   28.0341 C.ar      1 UNK         0.0000 
     16 N16        -1.7067  -15.0768   27.8972 N.am      1 UNK         0.0000 
     17 C17        -2.8762  -15.9562   27.9858 C.3       1 UNK         0.0000 
     18 C18        -2.5957  -17.4655   28.0335 C.ar      1 UNK         0.0000 
     19 C19        -3.5575  -18.4123   27.6131 C.ar      1 UNK         0.0000 
     20 C20        -4.9183  -17.9857   27.0387 C.3       1 UNK         0.0000 
     21 F21        -5.5432  -17.1800   27.8971 F         1 UNK         0.0000 
     22 F22        -4.7490  -17.3388   25.8844 F         1 UNK         0.0000 
     23 F23        -5.7289  -19.0175   26.8034 F         1 UNK         0.0000 
     24 C24        -3.2711  -19.7806   27.7510 C.ar      1 UNK         0.0000 
     25 C25        -2.0672  -20.2442   28.3026 C.ar      1 UNK         0.0000 
     26 N26        -1.7285  -21.5549   28.5256 N.2       1 UNK         0.0000 
     27 S27        -2.7033  -22.7780   28.4612 S.o2      1 UNK         0.0000 
     28 C28        -2.7007  -23.2263   26.6140 C.3       1 UNK         0.0000 
     29 C29        -1.4795  -23.9575   26.0996 C.3       1 UNK         0.0000 
     30 C30        -2.7971  -24.6904   26.2434 C.3       1 UNK         0.0000 
     31 O31        -2.1440  -23.9376   29.1625 O.2       1 UNK         0.0000 
     32 O32        -4.0943  -22.4477   28.7922 O.2       1 UNK         0.0000 
     33 C33        -1.1245  -19.2837   28.6712 C.ar      1 UNK         0.0000 
     34 C34        -1.3695  -17.9225   28.5277 C.ar      1 UNK         0.0000 
     35 H35         0.4744  -13.8738   24.7201 H         1 UNK         0.0000 
     36 H36         2.2251  -12.1754   24.6902 H         1 UNK         0.0000 
     37 H37         4.3521   -9.3330   26.6093 H         1 UNK         0.0000 
     38 H38         3.4754  -10.0216   25.2606 H         1 UNK         0.0000 
     39 H39         5.6328  -11.5237   26.8744 H         1 UNK         0.0000 
     40 H40         5.9443  -10.6828   25.3629 H         1 UNK         0.0000 
     41 H41         5.3584  -14.1331   24.3625 H         1 UNK         0.0000 
     42 H42         6.1146  -13.7300   25.9025 H         1 UNK         0.0000 
     43 H43         6.6107  -12.8906   24.4195 H         1 UNK         0.0000 
     44 H44         3.6779   -9.8704   28.9048 H         1 UNK         0.0000 
     45 H45         1.7424  -11.3131   30.1234 H         1 UNK         0.0000 
     46 H46        -0.1125  -13.3330   28.9617 H         1 UNK         0.0000 
     47 H47        -1.3445  -14.7567   28.7985 H         1 UNK         0.0000 
     48 H48        -3.4156  -15.6897   28.8969 H         1 UNK         0.0000 
     49 H49        -3.5386  -15.7167   27.1557 H         1 UNK         0.0000 
     50 H50        -4.0086  -20.4962   27.4285 H         1 UNK         0.0000 
     51 H51        -3.1842  -22.4602   26.0076 H         1 UNK         0.0000 
     52 H52        -1.1102  -23.7314   25.0980 H         1 UNK         0.0000 
     53 H53        -0.6708  -24.1725   26.8020 H         1 UNK         0.0000 
     54 H54        -2.9165  -25.4271   27.0381 H         1 UNK         0.0000 
     55 H55        -3.3283  -24.9755   25.3361 H         1 UNK         0.0000 
     56 H56        -0.1820  -19.5990   29.0973 H         1 UNK         0.0000 
     57 H57        -0.6107  -17.2260   28.8530 H         1 UNK         0.0000 
@<TRIPOS>BOND
     1    1    2 2    
     2    2    3 1    
     3    2   16 am   BACKBONE|DICT|INTERRES
     4    3   15 ar   
     5    3    4 ar   
     6    4    5 ar   
     7    4   35 1    
     8    5    6 ar   
     9    5   36 1    
    10    6    7 ar   
    11    6   14 ar   
    12    7    8 1    
    13    7   12 ar   
    14    8    9 1    
    15    8   37 1    
    16    8   38 1    
    17    9   10 1    
    18    9   39 1    
    19    9   40 1    
    20   10   11 1    
    21   11   41 1    
    22   11   42 1    
    23   11   43 1    
    24   12   13 ar   
    25   12   44 1    
    26   13   14 ar   
    27   13   45 1    
    28   14   15 ar   
    29   15   46 1    
    30   16   17 1    
    31   16   47 1    
    32   17   18 1    
    33   17   48 1    
    34   17   49 1    
    35   18   34 ar   
    36   18   19 ar   
    37   19   20 1    
    38   19   24 ar   
    39   20   21 1    
    40   20   22 1    
    41   20   23 1    
    42   24   25 ar   
    43   24   50 1    
    44   25   26 1    
    45   25   33 ar   
    46   26   27 1    
    47   27   28 1    
    48   27   31 2    
    49   27   32 2    
    50   28   30 1    
    51   28   29 1    
    52   28   51 1    
    53   29   30 1    
    54   29   52 1    
    55   29   53 1    
    56   30   54 1    
    57   30   55 1    
    58   33   34 ar   
    59   33   56 1    
    60   34   57 1    
@<TRIPOS>SUBSTRUCTURE
     1 UNK         1 GROUP             0       ****    0 ROOT    
