@<TRIPOS>MOLECULE
/home/yujie/leadopt/data/result/selection/sEH/lig_h.sdf:1
53   56    1
SMALL
USER_CHARGES


@<TRIPOS>ATOM
      1 O1         -1.3293  -16.1162   25.8976 O.2       1 UNK         0.0000 
      2 C2         -1.2363  -15.3257   26.8358 C.2       1 UNK         0.0000 
      3 C3         -0.2013  -14.2085   26.8433 C.ar      1 UNK         0.0000 
      4 C4          0.7516  -14.0996   25.8228 C.ar      1 UNK         0.0000 
      5 C5          1.7191  -13.0919   25.7857 C.ar      1 UNK         0.0000 
      6 C6          1.7360  -12.1792   26.8475 C.ar      1 UNK         0.0000 
      7 N7          2.5248  -11.0638   27.1005 N.pl3     1 UNK         0.0000 
      8 C8          3.6171  -10.5588   26.2758 C.3       1 UNK         0.0000 
      9 C9          4.9841  -11.1209   26.6509 C.ar      1 UNK         0.0000 
     10 C10         5.7558  -11.7917   25.6979 C.ar      1 UNK         0.0000 
     11 C11         7.0121  -12.2920   26.0378 C.ar      1 UNK         0.0000 
     12 F12         7.7540  -12.9326   25.1089 F         1 UNK         0.0000 
     13 C13         7.5031  -12.1289   27.3311 C.ar      1 UNK         0.0000 
     14 C14         6.7437  -11.4567   28.2880 C.ar      1 UNK         0.0000 
     15 C15         5.4922  -10.9486   27.9444 C.ar      1 UNK         0.0000 
     16 C16         2.1625  -10.5325   28.3164 C.ar      1 UNK         0.0000 
     17 C17         1.1281  -11.2537   28.8606 C.ar      1 UNK         0.0000 
     18 C18         0.8152  -12.2847   27.9281 C.ar      1 UNK         0.0000 
     19 C19        -0.1546  -13.2893   27.8976 C.ar      1 UNK         0.0000 
     20 N20        -2.0552  -15.3740   27.8972 N.am      1 UNK         0.0000 
     21 C21        -2.3857  -16.5229   28.7279 C.3       1 UNK         0.0000 
     22 C22        -2.5085  -17.9420   28.1577 C.ar      1 UNK         0.0000 
     23 C23        -3.6934  -18.4317   27.5743 C.ar      1 UNK         0.0000 
     24 C24        -4.8429  -17.4938   27.1881 C.3       1 UNK         0.0000 
     25 F25        -5.3305  -16.9329   28.2866 F         1 UNK         0.0000 
     26 F26        -4.4115  -16.5423   26.3612 F         1 UNK         0.0000 
     27 F27        -5.8457  -18.1288   26.5794 F         1 UNK         0.0000 
     28 C28        -3.8249  -19.8124   27.3607 C.ar      1 UNK         0.0000 
     29 C29        -2.8037  -20.7105   27.7091 C.ar      1 UNK         0.0000 
     30 O30        -2.8669  -22.0789   27.5326 O.3       1 UNK         0.0000 
     31 C31        -3.9999  -22.6434   26.8844 C.3       1 UNK         0.0000 
     32 C32        -1.6302  -20.2028   28.2605 C.ar      1 UNK         0.0000 
     33 C33        -1.4717  -18.8346   28.4517 C.ar      1 UNK         0.0000 
     34 H34         0.7650  -14.8128   25.0187 H         1 UNK         0.0000 
     35 H35         2.4263  -13.0311   24.9701 H         1 UNK         0.0000 
     36 H36         3.3819  -10.7622   25.2284 H         1 UNK         0.0000 
     37 H37         3.6389   -9.4730   26.3648 H         1 UNK         0.0000 
     38 H38         5.3900  -11.9307   24.6921 H         1 UNK         0.0000 
     39 H39         8.4754  -12.5187   27.5928 H         1 UNK         0.0000 
     40 H40         7.1200  -11.3199   29.2917 H         1 UNK         0.0000 
     41 H41         4.9210  -10.4222   28.6932 H         1 UNK         0.0000 
     42 H42         2.6803   -9.6630   28.6947 H         1 UNK         0.0000 
     43 H43         0.6498  -11.0525   29.8047 H         1 UNK         0.0000 
     44 H44        -0.8688  -13.3267   28.6973 H         1 UNK         0.0000 
     45 H45        -2.1163  -14.5197   28.4346 H         1 UNK         0.0000 
     46 H46        -3.2810  -16.2726   29.2923 H         1 UNK         0.0000 
     47 H47        -1.6115  -16.5333   29.4968 H         1 UNK         0.0000 
     48 H48        -4.7349  -20.1881   26.9205 H         1 UNK         0.0000 
     49 H49        -3.8648  -23.7212   26.7929 H         1 UNK         0.0000 
     50 H50        -4.1180  -22.2436   25.8765 H         1 UNK         0.0000 
     51 H51        -4.9159  -22.4709   27.4502 H         1 UNK         0.0000 
     52 H52        -0.8258  -20.8731   28.5315 H         1 UNK         0.0000 
     53 H53        -0.5572  -18.4811   28.9111 H         1 UNK         0.0000 
@<TRIPOS>BOND
     1    1    2 2    
     2    2    3 1    
     3    2   20 am   BACKBONE|DICT|INTERRES
     4    3   19 ar   
     5    3    4 ar   
     6    4    5 ar   
     7    4   34 1    
     8    5    6 ar   
     9    5   35 1    
    10    6    7 ar   
    11    6   18 ar   
    12    7    8 1    
    13    7   16 ar   
    14    8    9 1    
    15    8   36 1    
    16    8   37 1    
    17    9   15 ar   
    18    9   10 ar   
    19   10   11 ar   
    20   10   38 1    
    21   11   12 1    
    22   11   13 ar   
    23   13   14 ar   
    24   13   39 1    
    25   14   15 ar   
    26   14   40 1    
    27   15   41 1    
    28   16   17 ar   
    29   16   42 1    
    30   17   18 ar   
    31   17   43 1    
    32   18   19 ar   
    33   19   44 1    
    34   20   21 1    
    35   20   45 1    
    36   21   22 1    
    37   21   46 1    
    38   21   47 1    
    39   22   33 ar   
    40   22   23 ar   
    41   23   24 1    
    42   23   28 ar   
    43   24   25 1    
    44   24   26 1    
    45   24   27 1    
    46   28   29 ar   
    47   28   48 1    
    48   29   30 1    
    49   29   32 ar   
    50   30   31 1    
    51   31   49 1    
    52   31   50 1    
    53   31   51 1    
    54   32   33 ar   
    55   32   52 1    
    56   33   53 1    
@<TRIPOS>SUBSTRUCTURE
     1 UNK         1 GROUP             0       ****    0 ROOT    
