@<TRIPOS>MOLECULE
/home/yujie/leadopt/data/result/selection/sEH/lig_11m.sdf:1
60   64    1
SMALL
USER_CHARGES


@<TRIPOS>ATOM
      1 O1         -1.3290  -15.3329   25.6693 O.2       1 UNK         0.0000 
      2 C2         -0.9814  -14.9317   26.7807 C.2       1 UNK         0.0000 
      3 C3          0.2423  -14.0664   26.9254 C.ar      1 UNK         0.0000 
      4 C4          1.3524  -14.3299   26.1193 C.ar      1 UNK         0.0000 
      5 C5          2.5212  -13.5815   26.1855 C.ar      1 UNK         0.0000 
      6 C6          2.5554  -12.5233   27.0971 C.ar      1 UNK         0.0000 
      7 N7          3.5863  -11.6725   27.4645 N.pl3     1 UNK         0.0000 
      8 S8          5.1907  -11.6629   26.8374 S.o2      1 UNK         0.0000 
      9 C9          5.0519  -10.9391   25.2090 C.ar      1 UNK         0.0000 
     10 C10         5.1893   -9.5592   25.0466 C.ar      1 UNK         0.0000 
     11 C11         5.0709   -8.9863   23.7827 C.ar      1 UNK         0.0000 
     12 F12         5.2038   -7.6489   23.6313 F         1 UNK         0.0000 
     13 C13         4.8029   -9.7943   22.6782 C.ar      1 UNK         0.0000 
     14 C14         4.6720  -11.1737   22.8311 C.ar      1 UNK         0.0000 
     15 C15         4.8069  -11.7476   24.0941 C.ar      1 UNK         0.0000 
     16 O16         5.5699  -13.0709   26.6733 O.2       1 UNK         0.0000 
     17 O17         5.9631  -10.7495   27.6878 O.2       1 UNK         0.0000 
     18 C18         3.0841  -10.7141   28.3162 C.ar      1 UNK         0.0000 
     19 C19         1.7840  -11.0251   28.6541 C.ar      1 UNK         0.0000 
     20 C20         1.4244  -12.1895   27.9035 C.ar      1 UNK         0.0000 
     21 C21         0.2711  -12.9881   27.8228 C.ar      1 UNK         0.0000 
     22 N22        -1.6721  -15.2068   27.8972 N.am      1 UNK         0.0000 
     23 C23        -2.9155  -15.9769   27.9572 C.3       1 UNK         0.0000 
     24 C24        -2.8008  -17.5099   27.8876 C.ar      1 UNK         0.0000 
     25 C25        -3.8847  -18.3037   27.4577 C.ar      1 UNK         0.0000 
     26 C26        -5.1920  -17.6864   26.9412 C.3       1 UNK         0.0000 
     27 F27        -6.1006  -18.5975   26.6006 F         1 UNK         0.0000 
     28 F28        -5.7280  -16.9329   27.8969 F         1 UNK         0.0000 
     29 F29        -4.9660  -16.9373   25.8603 F         1 UNK         0.0000 
     30 C30        -3.7778  -19.6987   27.5398 C.ar      1 UNK         0.0000 
     31 C31        -2.6297  -20.3480   28.0006 C.ar      1 UNK         0.0000 
     32 N32        -2.7274  -21.7110   28.1352 N.2       1 UNK         0.0000 
     33 S33        -1.5737  -22.7630   28.2973 S.o2      1 UNK         0.0000 
     34 C34        -1.4433  -23.4661   26.5412 C.3       1 UNK         0.0000 
     35 C35        -1.1091  -24.9323   26.3921 C.3       1 UNK         0.0000 
     36 C36        -2.5149  -24.4411   26.1074 C.3       1 UNK         0.0000 
     37 O37        -0.2403  -22.2187   28.5638 O.2       1 UNK         0.0000 
     38 O38        -1.9904  -23.8755   29.1574 O.2       1 UNK         0.0000 
     39 C39        -1.5370  -19.5389   28.3381 C.ar      1 UNK         0.0000 
     40 C40        -1.6220  -18.1471   28.2944 C.ar      1 UNK         0.0000 
     41 H41         1.3358  -15.1678   25.4372 H         1 UNK         0.0000 
     42 H42         3.3778  -13.8561   25.5932 H         1 UNK         0.0000 
     43 H43         5.3915   -8.9327   25.8973 H         1 UNK         0.0000 
     44 H44         4.6730   -9.3461   21.7037 H         1 UNK         0.0000 
     45 H45         4.4590  -11.7942   21.9720 H         1 UNK         0.0000 
     46 H46         4.7214  -12.8180   24.1988 H         1 UNK         0.0000 
     47 H47         3.7250   -9.9147   28.6653 H         1 UNK         0.0000 
     48 H48         1.1671  -10.4812   29.3531 H         1 UNK         0.0000 
     49 H49        -0.5868  -12.7573   28.4411 H         1 UNK         0.0000 
     50 H50        -1.3011  -14.9312   28.8096 H         1 UNK         0.0000 
     51 H51        -3.3982  -15.7313   28.9049 H         1 UNK         0.0000 
     52 H52        -3.5721  -15.5984   27.1785 H         1 UNK         0.0000 
     53 H53        -4.6232  -20.3104   27.2579 H         1 UNK         0.0000 
     54 H54        -1.0517  -22.7272   25.8461 H         1 UNK         0.0000 
     55 H55        -0.4708  -25.2368   25.5623 H         1 UNK         0.0000 
     56 H56        -0.9291  -25.5222   27.2917 H         1 UNK         0.0000 
     57 H57        -3.3150  -24.6779   26.8098 H         1 UNK         0.0000 
     58 H58        -2.8707  -24.3980   25.0782 H         1 UNK         0.0000 
     59 H59        -0.6191  -19.9571   28.7156 H         1 UNK         0.0000 
     60 H60        -0.7707  -17.5686   28.6235 H         1 UNK         0.0000 
@<TRIPOS>BOND
     1    1    2 2    
     2    2    3 1    
     3    2   22 am   BACKBONE|DICT|INTERRES
     4    3   21 ar   
     5    3    4 ar   
     6    4    5 ar   
     7    4   41 1    
     8    5    6 ar   
     9    5   42 1    
    10    6    7 ar   
    11    6   20 ar   
    12    7    8 1    
    13    7   18 ar   
    14    8    9 1    
    15    8   16 2    
    16    8   17 2    
    17    9   15 ar   
    18    9   10 ar   
    19   10   11 ar   
    20   10   43 1    
    21   11   12 1    
    22   11   13 ar   
    23   13   14 ar   
    24   13   44 1    
    25   14   15 ar   
    26   14   45 1    
    27   15   46 1    
    28   18   19 ar   
    29   18   47 1    
    30   19   20 ar   
    31   19   48 1    
    32   20   21 ar   
    33   21   49 1    
    34   22   23 1    
    35   22   50 1    
    36   23   24 1    
    37   23   51 1    
    38   23   52 1    
    39   24   40 ar   
    40   24   25 ar   
    41   25   26 1    
    42   25   30 ar   
    43   26   27 1    
    44   26   28 1    
    45   26   29 1    
    46   30   31 ar   
    47   30   53 1    
    48   31   32 1    
    49   31   39 ar   
    50   32   33 1    
    51   33   34 1    
    52   33   37 2    
    53   33   38 2    
    54   34   36 1    
    55   34   35 1    
    56   34   54 1    
    57   35   36 1    
    58   35   55 1    
    59   35   56 1    
    60   36   57 1    
    61   36   58 1    
    62   39   40 ar   
    63   39   59 1    
    64   40   60 1    
@<TRIPOS>SUBSTRUCTURE
     1 UNK         1 GROUP             0       ****    0 ROOT    
