@<TRIPOS>MOLECULE
/home/yujie/leadopt/data/result/selection/sEH/lig_7c.sdf:1
49   52    1
SMALL
USER_CHARGES


@<TRIPOS>ATOM
      1 O1         -1.3290  -15.3329   25.6957 O.2       1 UNK         0.0000 
      2 C2         -1.0131  -14.8174   26.7689 C.2       1 UNK         0.0000 
      3 C3          0.0830  -13.7737   26.8287 C.ar      1 UNK         0.0000 
      4 C4          0.8749  -13.5560   25.6888 C.ar      1 UNK         0.0000 
      5 C5          1.8302  -12.5431   25.6137 C.ar      1 UNK         0.0000 
      6 C6          1.9615  -11.7211   26.7348 C.ar      1 UNK         0.0000 
      7 N7          2.7535  -10.5971   26.9682 N.pl3     1 UNK         0.0000 
      8 C8          3.7569  -10.0343   26.0702 C.3       1 UNK         0.0000 
      9 C9          5.1452  -10.6656   26.1748 C.ar      1 UNK         0.0000 
     10 C10         5.4881  -11.5455   27.2130 C.ar      1 UNK         0.0000 
     11 C11         6.7669  -12.0877   27.2894 C.ar      1 UNK         0.0000 
     12 F12         7.0710  -12.9329   28.2972 F         1 UNK         0.0000 
     13 C13         7.7228  -11.7591   26.3302 C.ar      1 UNK         0.0000 
     14 C14         7.3967  -10.8824   25.2951 C.ar      1 UNK         0.0000 
     15 C15         6.1136  -10.3373   25.2195 C.ar      1 UNK         0.0000 
     16 C16         2.5160  -10.1668   28.2492 C.ar      1 UNK         0.0000 
     17 N17         1.5786  -10.9839   28.8245 N.pl3     1 UNK         0.0000 
     18 C18         1.2046  -11.9479   27.8997 C.ar      1 UNK         0.0000 
     19 C19         0.2710  -12.9807   27.9768 C.ar      1 UNK         0.0000 
     20 N20        -1.6894  -15.0857   27.8972 N.am      1 UNK         0.0000 
     21 C21        -2.8599  -15.9614   28.0004 C.3       1 UNK         0.0000 
     22 C22        -2.5756  -17.4701   28.0682 C.ar      1 UNK         0.0000 
     23 C23        -3.5334  -18.4224   27.6465 C.ar      1 UNK         0.0000 
     24 C24        -4.8933  -18.0060   27.0652 C.3       1 UNK         0.0000 
     25 F25        -5.5163  -17.1750   27.8972 F         1 UNK         0.0000 
     26 F26        -4.7187  -17.3916   25.8952 F         1 UNK         0.0000 
     27 F27        -5.7035  -19.0451   26.8600 F         1 UNK         0.0000 
     28 C28        -3.2377  -19.7886   27.7754 C.ar      1 UNK         0.0000 
     29 C29        -2.0191  -20.2134   28.2972 C.ar      1 UNK         0.0000 
     30 C30        -1.0729  -19.2769   28.6972 C.ar      1 UNK         0.0000 
     31 C31        -1.3440  -17.9171   28.5719 C.ar      1 UNK         0.0000 
     32 H32         0.7352  -14.1690   24.8086 H         1 UNK         0.0000 
     33 H33         2.4076  -12.3871   24.7137 H         1 UNK         0.0000 
     34 H34         3.3871  -10.1358   25.0481 H         1 UNK         0.0000 
     35 H35         3.8307   -8.9634   26.2603 H         1 UNK         0.0000 
     36 H36         4.7770  -11.8246   27.9754 H         1 UNK         0.0000 
     37 H37         8.7122  -12.1856   26.3907 H         1 UNK         0.0000 
     38 H38         8.1374  -10.6254   24.5517 H         1 UNK         0.0000 
     39 H39         5.8757   -9.6577   24.4132 H         1 UNK         0.0000 
     40 H40         3.0169   -9.3329   28.7173 H         1 UNK         0.0000 
     41 H41        -0.3217  -13.1141   28.8709 H         1 UNK         0.0000 
     42 H42        -1.3290  -14.7670   28.7998 H         1 UNK         0.0000 
     43 H43        -3.5250  -15.7329   27.1686 H         1 UNK         0.0000 
     44 H44        -3.3971  -15.6843   28.9097 H         1 UNK         0.0000 
     45 H45        -3.9508  -20.5393   27.4659 H         1 UNK         0.0000 
     46 H46        -1.8061  -21.2685   28.3888 H         1 UNK         0.0000 
     47 H47        -0.1290  -19.6067   29.1078 H         1 UNK         0.0000 
     48 H48        -0.5968  -17.2107   28.9049 H         1 UNK         0.0000 
     49 H49         1.2391  -10.8716   29.7698 H         1 UNK         0.0000 
@<TRIPOS>BOND
     1    1    2 2    
     2    2    3 1    
     3    2   20 am   BACKBONE|DICT|INTERRES
     4    3   19 ar   
     5    3    4 ar   
     6    4    5 ar   
     7    4   32 1    
     8    5    6 ar   
     9    5   33 1    
    10    6    7 ar   
    11    6   18 ar   
    12    7    8 1    
    13    7   16 ar   
    14    8    9 1    
    15    8   34 1    
    16    8   35 1    
    17    9   15 ar   
    18    9   10 ar   
    19   10   11 ar   
    20   10   36 1    
    21   11   12 1    
    22   11   13 ar   
    23   13   14 ar   
    24   13   37 1    
    25   14   15 ar   
    26   14   38 1    
    27   15   39 1    
    28   16   17 ar   
    29   16   40 1    
    30   17   18 ar   
    31   17   49 1    
    32   18   19 ar   
    33   19   41 1    
    34   20   21 1    
    35   20   42 1    
    36   21   22 1    
    37   21   43 1    
    38   21   44 1    
    39   22   31 ar   
    40   22   23 ar   
    41   23   24 1    
    42   23   28 ar   
    43   24   25 1    
    44   24   26 1    
    45   24   27 1    
    46   28   29 ar   
    47   28   45 1    
    48   29   30 ar   
    49   29   46 1    
    50   30   31 ar   
    51   30   47 1    
    52   31   48 1    
@<TRIPOS>SUBSTRUCTURE
     1 UNK         1 GROUP             0       ****    0 ROOT    
