@<TRIPOS>MOLECULE
/home/yujie/leadopt/data/result/selection/sEH/lig_7a.sdf:1
53   56    1
SMALL
USER_CHARGES


@<TRIPOS>ATOM
      1 O1         -1.6448  -15.8190   25.8970 O.2       1 UNK         0.0000 
      2 C2         -1.3291  -15.2090   26.9129 C.2       1 UNK         0.0000 
      3 C3         -0.1963  -14.2131   26.8845 C.ar      1 UNK         0.0000 
      4 C4          0.7131  -14.2006   25.8102 C.ar      1 UNK         0.0000 
      5 C5          1.7187  -13.2404   25.7090 C.ar      1 UNK         0.0000 
      6 C6          1.8242  -12.3021   26.7260 C.ar      1 UNK         0.0000 
      7 N7          2.6656  -11.2343   26.9141 N.pl3     1 UNK         0.0000 
      8 C8          3.7683  -10.8053   26.0458 C.3       1 UNK         0.0000 
      9 C9          5.1644  -11.1881   26.5278 C.ar      1 UNK         0.0000 
     10 C10         6.2383  -10.3381   26.2504 C.ar      1 UNK         0.0000 
     11 C11         7.5081  -10.6418   26.7368 C.ar      1 UNK         0.0000 
     12 C12         7.6956  -11.7923   27.4968 C.ar      1 UNK         0.0000 
     13 C13         6.6322  -12.6426   27.7772 C.ar      1 UNK         0.0000 
     14 C14         5.3708  -12.3466   27.2801 C.ar      1 UNK         0.0000 
     15 C15         2.4187  -10.6531   28.1140 C.ar      1 UNK         0.0000 
     16 N16         1.3653  -11.3132   28.6269 N.pl3     1 UNK         0.0000 
     17 O17         3.0247   -9.7329   28.6374 O.2       1 UNK         0.0000 
     18 C18         0.9819  -12.3293   27.8009 C.ar      1 UNK         0.0000 
     19 C19        -0.0486  -13.2541   27.8972 C.ar      1 UNK         0.0000 
     20 N20        -2.0001  -15.3593   28.0612 N.am      1 UNK         0.0000 
     21 C21        -3.1431  -16.2452   28.2585 C.3       1 UNK         0.0000 
     22 C22        -2.8381  -17.7453   28.1229 C.ar      1 UNK         0.0000 
     23 C23        -3.7326  -18.6407   27.4972 C.ar      1 UNK         0.0000 
     24 C24        -5.0126  -18.1531   26.7996 C.3       1 UNK         0.0000 
     25 F25        -5.7867  -17.4971   27.6595 F         1 UNK         0.0000 
     26 F26        -4.6992  -17.3338   25.7960 F         1 UNK         0.0000 
     27 F27        -5.7285  -19.1549   26.2879 F         1 UNK         0.0000 
     28 C28        -3.4282  -20.0103   27.4972 C.ar      1 UNK         0.0000 
     29 C29        -2.2260  -20.4993   28.0322 C.ar      1 UNK         0.0000 
     30 O30        -1.8522  -21.8296   28.0388 O.3       1 UNK         0.0000 
     31 C31        -2.6999  -22.7897   27.4183 C.3       1 UNK         0.0000 
     32 C32        -1.3296  -19.5947   28.5900 C.ar      1 UNK         0.0000 
     33 C33        -1.6316  -18.2349   28.6371 C.ar      1 UNK         0.0000 
     34 H34         0.6520  -14.9290   25.0248 H         1 UNK         0.0000 
     35 H35         2.3860  -13.2395   24.8601 H         1 UNK         0.0000 
     36 H36         3.6239  -11.2193   25.0483 H         1 UNK         0.0000 
     37 H37         3.7121   -9.7216   25.9331 H         1 UNK         0.0000 
     38 H38         6.0868   -9.4363   25.6754 H         1 UNK         0.0000 
     39 H39         8.3389   -9.9851   26.5289 H         1 UNK         0.0000 
     40 H40         8.6709  -12.0411   27.8829 H         1 UNK         0.0000 
     41 H41         6.7837  -13.5300   28.3715 H         1 UNK         0.0000 
     42 H42         4.5488  -13.0101   27.4953 H         1 UNK         0.0000 
     43 H43         0.9536  -11.1063   29.5243 H         1 UNK         0.0000 
     44 H44        -0.7425  -13.2050   28.7202 H         1 UNK         0.0000 
     45 H45        -1.6240  -14.9326   28.9114 H         1 UNK         0.0000 
     46 H46        -3.9351  -15.9029   27.5963 H         1 UNK         0.0000 
     47 H47        -3.5134  -16.0717   29.2679 H         1 UNK         0.0000 
     48 H48        -4.1227  -20.6967   27.0386 H         1 UNK         0.0000 
     49 H49        -2.2448  -23.7756   27.4990 H         1 UNK         0.0000 
     50 H50        -2.8379  -22.5752   26.3576 H         1 UNK         0.0000 
     51 H51        -3.6760  -22.8360   27.9027 H         1 UNK         0.0000 
     52 H52        -0.3956  -19.9489   29.0050 H         1 UNK         0.0000 
     53 H53        -0.9194  -17.5636   29.0975 H         1 UNK         0.0000 
@<TRIPOS>BOND
     1    1    2 2    
     2    2    3 1    
     3    2   20 am   BACKBONE|DICT|INTERRES
     4    3   19 ar   
     5    3    4 ar   
     6    4    5 ar   
     7    4   34 1    
     8    5    6 ar   
     9    5   35 1    
    10    6    7 ar   
    11    6   18 ar   
    12    7    8 1    
    13    7   15 ar   
    14    8    9 1    
    15    8   36 1    
    16    8   37 1    
    17    9   14 ar   
    18    9   10 ar   
    19   10   11 ar   
    20   10   38 1    
    21   11   12 ar   
    22   11   39 1    
    23   12   13 ar   
    24   12   40 1    
    25   13   14 ar   
    26   13   41 1    
    27   14   42 1    
    28   15   16 ar   
    29   15   17 2    
    30   16   18 ar   
    31   16   43 1    
    32   18   19 ar   
    33   19   44 1    
    34   20   21 1    
    35   20   45 1    
    36   21   22 1    
    37   21   46 1    
    38   21   47 1    
    39   22   33 ar   
    40   22   23 ar   
    41   23   24 1    
    42   23   28 ar   
    43   24   25 1    
    44   24   26 1    
    45   24   27 1    
    46   28   29 ar   
    47   28   48 1    
    48   29   30 1    
    49   29   32 ar   
    50   30   31 1    
    51   31   49 1    
    52   31   50 1    
    53   31   51 1    
    54   32   33 ar   
    55   32   52 1    
    56   33   53 1    
@<TRIPOS>SUBSTRUCTURE
     1 UNK         1 GROUP             0       ****    0 ROOT    
