@<TRIPOS>MOLECULE
/home/yujie/leadopt/data/result/selection/sEH/lig_10b.sdf:1
60   63    1
SMALL
USER_CHARGES


@<TRIPOS>ATOM
      1 O1         -1.5964  -15.7117   25.8955 O.2       1 UNK         0.0000 
      2 C2         -1.2125  -15.1458   26.9158 C.2       1 UNK         0.0000 
      3 C3         -0.1242  -14.0865   26.8596 C.ar      1 UNK         0.0000 
      4 C4          0.6429  -13.9346   25.7015 C.ar      1 UNK         0.0000 
      5 C5          1.6523  -12.9904   25.5702 C.ar      1 UNK         0.0000 
      6 C6          1.8296  -12.0742   26.6153 C.ar      1 UNK         0.0000 
      7 N7          2.6445  -10.9436   26.7494 N.pl3     1 UNK         0.0000 
      8 C8          3.6183  -10.3384   25.8008 C.3       1 UNK         0.0000 
      9 C9          3.4437  -10.7935   24.3325 C.3       1 UNK         0.0000 
     10 C10         5.0903  -10.3677   26.2421 C.ar      1 UNK         0.0000 
     11 C11         5.4857  -10.9317   27.4629 C.ar      1 UNK         0.0000 
     12 C12         6.8058  -10.8460   27.8883 C.ar      1 UNK         0.0000 
     13 F13         7.1366  -11.3334   29.0972 F         1 UNK         0.0000 
     14 C14         7.7669  -10.2429   27.0838 C.ar      1 UNK         0.0000 
     15 C15         7.4037   -9.7208   25.8434 C.ar      1 UNK         0.0000 
     16 C16         6.0711   -9.7716   25.4343 C.ar      1 UNK         0.0000 
     17 C17         2.3940  -10.3902   27.9914 C.ar      1 UNK         0.0000 
     18 C18         1.4710  -11.1341   28.6881 C.ar      1 UNK         0.0000 
     19 C19         1.0619  -12.1882   27.8166 C.ar      1 UNK         0.0000 
     20 C20         0.1089  -13.2104   27.9299 C.ar      1 UNK         0.0000 
     21 N21        -1.7582  -15.4151   28.1084 N.am      1 UNK         0.0000 
     22 C22        -2.9153  -16.2685   28.3700 C.3       1 UNK         0.0000 
     23 C23        -2.7374  -17.7735   28.1075 C.ar      1 UNK         0.0000 
     24 C24        -3.7427  -18.5558   27.4991 C.ar      1 UNK         0.0000 
     25 C25        -5.0249  -17.9314   26.9301 C.3       1 UNK         0.0000 
     26 F26        -5.7280  -17.3356   27.8944 F         1 UNK         0.0000 
     27 F27        -4.7193  -17.0308   25.9953 F         1 UNK         0.0000 
     28 F28        -5.8092  -18.8385   26.3518 F         1 UNK         0.0000 
     29 C29        -3.5353  -19.9373   27.3584 C.ar      1 UNK         0.0000 
     30 C30        -2.3290  -20.5385   27.7165 C.ar      1 UNK         0.0000 
     31 N31        -2.1202  -21.8737   27.3387 N.pl3     1 UNK         0.0000 
     32 S32        -1.3251  -23.1173   28.3185 S.o2      1 UNK         0.0000 
     33 C33        -2.6206  -23.4704   29.6283 C.3       1 UNK         0.0000 
     34 O34        -0.1331  -22.5442   28.9496 O.2       1 UNK         0.0000 
     35 O35        -1.2168  -24.2985   27.4564 O.2       1 UNK         0.0000 
     36 C36        -1.3333  -19.7530   28.2972 C.ar      1 UNK         0.0000 
     37 C37        -1.5388  -18.3894   28.4917 C.ar      1 UNK         0.0000 
     38 H38         0.4606  -14.5355   24.8302 H         1 UNK         0.0000 
     39 H39         2.2106  -12.9694   24.6524 H         1 UNK         0.0000 
     40 H40         3.3460   -9.2816   25.8026 H         1 UNK         0.0000 
     41 H41         3.8420  -10.0590   23.6319 H         1 UNK         0.0000 
     42 H42         3.9658  -11.7319   24.1428 H         1 UNK         0.0000 
     43 H43         2.4010  -10.9330   24.0677 H         1 UNK         0.0000 
     44 H44         4.7805  -11.4154   28.1197 H         1 UNK         0.0000 
     45 H45         8.7853  -10.1717   27.4250 H         1 UNK         0.0000 
     46 H46         8.1493   -9.2512   25.2183 H         1 UNK         0.0000 
     47 H47         5.8083   -9.3240   24.4867 H         1 UNK         0.0000 
     48 H48         2.9258   -9.4978   28.2923 H         1 UNK         0.0000 
     49 H49         1.1063  -10.9201   29.6817 H         1 UNK         0.0000 
     50 H50        -0.4826  -13.2712   28.8306 H         1 UNK         0.0000 
     51 H51        -1.3411  -14.9956   28.9442 H         1 UNK         0.0000 
     52 H52        -3.7645  -15.8323   27.8437 H         1 UNK         0.0000 
     53 H53        -3.1596  -16.1536   29.4276 H         1 UNK         0.0000 
     54 H54        -4.2892  -20.5462   26.8789 H         1 UNK         0.0000 
     55 H55        -2.7559  -22.2480   26.6493 H         1 UNK         0.0000 
     56 H56        -2.1935  -24.1414   30.3692 H         1 UNK         0.0000 
     57 H57        -3.4781  -23.9397   29.1482 H         1 UNK         0.0000 
     58 H58        -2.9208  -22.5334   30.0879 H         1 UNK         0.0000 
     59 H59        -0.3803  -20.1744   28.5754 H         1 UNK         0.0000 
     60 H60        -0.7518  -17.8062   28.9459 H         1 UNK         0.0000 
@<TRIPOS>BOND
     1    1    2 2    
     2    2    3 1    
     3    2   21 am   BACKBONE|DICT|INTERRES
     4    3   20 ar   
     5    3    4 ar   
     6    4    5 ar   
     7    4   38 1    
     8    5    6 ar   
     9    5   39 1    
    10    6    7 ar   
    11    6   19 ar   
    12    7    8 1    
    13    7   17 ar   
    14    8    9 1    
    15    8   10 1    
    16    8   40 1    
    17    9   41 1    
    18    9   42 1    
    19    9   43 1    
    20   10   16 ar   
    21   10   11 ar   
    22   11   12 ar   
    23   11   44 1    
    24   12   13 1    
    25   12   14 ar   
    26   14   15 ar   
    27   14   45 1    
    28   15   16 ar   
    29   15   46 1    
    30   16   47 1    
    31   17   18 ar   
    32   17   48 1    
    33   18   19 ar   
    34   18   49 1    
    35   19   20 ar   
    36   20   50 1    
    37   21   22 1    
    38   21   51 1    
    39   22   23 1    
    40   22   52 1    
    41   22   53 1    
    42   23   37 ar   
    43   23   24 ar   
    44   24   25 1    
    45   24   29 ar   
    46   25   26 1    
    47   25   27 1    
    48   25   28 1    
    49   29   30 ar   
    50   29   54 1    
    51   30   31 1    
    52   30   36 ar   
    53   31   32 1    
    54   31   55 1    
    55   32   33 1    
    56   32   34 2    
    57   32   35 2    
    58   33   56 1    
    59   33   57 1    
    60   33   58 1    
    61   36   37 ar   
    62   36   59 1    
    63   37   60 1    
@<TRIPOS>SUBSTRUCTURE
     1 UNK         1 GROUP             0       ****    0 ROOT    
