/home/yujie/leadopt/data/result/selection/sEH/lig_11i.sdf:1
                    3D
 Schrodinger Suite 2020-3.
 57 60  0  0  1  0            999 V2000
   -1.3290  -15.3328   25.6983 O   0  0  0  0  0  0
   -1.0291  -14.8046   26.7705 C   0  0  0  0  0  0
    0.0555  -13.7481   26.8322 C   0  0  0  0  0  0
    0.7260  -13.3913   25.6542 C   0  0  0  0  0  0
    1.7273  -12.4244   25.6172 C   0  0  0  0  0  0
    2.0714  -11.8105   26.8270 C   0  0  0  0  0  0
    3.0298  -10.8518   27.1242 N   0  0  0  0  0  0
    3.9920  -10.2713   26.1895 C   0  0  0  0  0  0
    5.1797  -11.2179   25.9283 C   0  0  0  0  0  0
    4.7468  -12.3449   25.1782 O   0  0  0  0  0  0
    5.7608  -13.3134   24.9586 C   0  0  0  0  0  0
    2.9868  -10.5826   28.4746 C   0  0  0  0  0  0
    1.9965  -11.3297   29.0739 C   0  0  0  0  0  0
    1.4069  -12.1335   28.0472 C   0  0  0  0  0  0
    0.3919  -13.1009   28.0341 C   0  0  0  0  0  0
   -1.7067  -15.0768   27.8972 N   0  0  0  0  0  0
   -2.8762  -15.9562   27.9858 C   0  0  0  0  0  0
   -2.5957  -17.4655   28.0335 C   0  0  0  0  0  0
   -3.5575  -18.4123   27.6131 C   0  0  0  0  0  0
   -4.9183  -17.9857   27.0387 C   0  0  0  0  0  0
   -5.5432  -17.1800   27.8971 F   0  0  0  0  0  0
   -4.7490  -17.3388   25.8844 F   0  0  0  0  0  0
   -5.7289  -19.0175   26.8034 F   0  0  0  0  0  0
   -3.2711  -19.7806   27.7510 C   0  0  0  0  0  0
   -2.0672  -20.2442   28.3026 C   0  0  0  0  0  0
   -1.7285  -21.5549   28.5256 N   0  5  0  0  0  0
   -2.7033  -22.7780   28.4612 S   0  0  0  0  0  0
   -2.7007  -23.2263   26.6140 C   0  0  0  0  0  0
   -1.4795  -23.9575   26.0996 C   0  0  0  0  0  0
   -2.7971  -24.6904   26.2434 C   0  0  0  0  0  0
   -2.1440  -23.9376   29.1625 O   0  0  0  0  0  0
   -4.0943  -22.4477   28.7922 O   0  0  0  0  0  0
   -1.1245  -19.2837   28.6712 C   0  0  0  0  0  0
   -1.3695  -17.9225   28.5277 C   0  0  0  0  0  0
    0.4744  -13.8738   24.7201 H   0  0  0  0  0  0
    2.2251  -12.1754   24.6902 H   0  0  0  0  0  0
    4.3521   -9.3330   26.6093 H   0  0  0  0  0  0
    3.4754  -10.0216   25.2606 H   0  0  0  0  0  0
    5.6328  -11.5237   26.8744 H   0  0  0  0  0  0
    5.9443  -10.6828   25.3629 H   0  0  0  0  0  0
    5.3584  -14.1331   24.3625 H   0  0  0  0  0  0
    6.1146  -13.7300   25.9025 H   0  0  0  0  0  0
    6.6107  -12.8906   24.4195 H   0  0  0  0  0  0
    3.6779   -9.8704   28.9048 H   0  0  0  0  0  0
    1.7424  -11.3131   30.1234 H   0  0  0  0  0  0
   -0.1125  -13.3330   28.9617 H   0  0  0  0  0  0
   -1.3445  -14.7567   28.7985 H   0  0  0  0  0  0
   -3.4156  -15.6897   28.8969 H   0  0  0  0  0  0
   -3.5386  -15.7167   27.1557 H   0  0  0  0  0  0
   -4.0086  -20.4962   27.4285 H   0  0  0  0  0  0
   -3.1842  -22.4602   26.0076 H   0  0  0  0  0  0
   -1.1102  -23.7314   25.0980 H   0  0  0  0  0  0
   -0.6708  -24.1725   26.8020 H   0  0  0  0  0  0
   -2.9165  -25.4271   27.0381 H   0  0  0  0  0  0
   -3.3283  -24.9755   25.3361 H   0  0  0  0  0  0
   -0.1820  -19.5990   29.0973 H   0  0  0  0  0  0
   -0.6107  -17.2260   28.8530 H   0  0  0  0  0  0
  1  2  2  0  0  0
  2  3  1  0  0  0
  2 16  1  0  0  0
  3 15  1  0  0  0
  3  4  2  0  0  0
  4  5  1  0  0  0
  4 35  1  0  0  0
  5  6  2  0  0  0
  5 36  1  0  0  0
  6  7  1  0  0  0
  6 14  1  0  0  0
  7  8  1  0  0  0
  7 12  1  0  0  0
  8  9  1  0  0  0
  8 37  1  0  0  0
  8 38  1  0  0  0
  9 10  1  0  0  0
  9 39  1  0  0  0
  9 40  1  0  0  0
 10 11  1  0  0  0
 11 41  1  0  0  0
 11 42  1  0  0  0
 11 43  1  0  0  0
 12 13  2  0  0  0
 12 44  1  0  0  0
 13 14  1  0  0  0
 13 45  1  0  0  0
 14 15  2  0  0  0
 15 46  1  0  0  0
 16 17  1  0  0  0
 16 47  1  0  0  0
 17 18  1  0  0  0
 17 48  1  0  0  0
 17 49  1  0  0  0
 18 34  1  0  0  0
 18 19  2  0  0  0
 19 20  1  0  0  0
 19 24  1  0  0  0
 20 21  1  0  0  0
 20 22  1  0  0  0
 20 23  1  0  0  0
 24 25  2  0  0  0
 24 50  1  0  0  0
 25 26  1  0  0  0
 25 33  1  0  0  0
 26 27  1  0  0  0
 27 28  1  0  0  0
 27 31  2  0  0  0
 27 32  2  0  0  0
 28 30  1  0  0  0
 28 29  1  0  0  0
 28 51  1  0  0  0
 29 30  1  0  0  0
 29 52  1  0  0  0
 29 53  1  0  0  0
 30 54  1  0  0  0
 30 55  1  0  0  0
 33 34  2  0  0  0
 33 56  1  0  0  0
 34 57  1  0  0  0
M  CHG  1  26  -1
M  END
> <s_m_source_file>
/home/yujie/leadopt/data/result/selection/sEH/lig_11i.sdf

> <i_m_source_file_index>
1

> <i_lp_mmshare_version>
51139

> <i_f3d_flags>
0

> <s_epik_input>
W0NIM11PW0NIMl1bQ0gyXW4xW2NIXVtjSF1jKGMxMilbY0hdYyhbY0hdW2NIXTIpQyg9TylbTkhdW0NIMl1jM2MoQyhGKShGKUYpW2NIXWMoW2NIXVtjSF0zKVtOSF1TKD1PKSg9TylbQ0hdNFtDSDJdW0NIMl00

> <s_epik_cmdline>
J2VwaWtfcHl0aG9uJywgJy1waHQnLCAnMi4wJywgJy1waCcsICc3LjAnLCAnLXRuJywgJzgnLCAnLW1hJywgJzIwMCcsICctaW1hZScsICc8aW5maWxlLm1hZT4nLCAnLW9tYWUnLCAnPG91dGZpbGUubWFlPic=

> <r_epik_Ionization_Penalty>
  1.2618

> <r_epik_Ionization_Penalty_Charging>
  1.2618

> <r_epik_Ionization_Penalty_Neutral>
  0.0000

> <r_epik_State_Penalty>
  1.3325

> <r_epik_Charging_Adjusted_Penalty>
2.59425

> <i_epik_Tot_Q>
-1

> <i_epik_Tot_abs_Q>
1

> <s_lp_Force_Field>
OPLS3e

> <r_lp_Energy>
47.99

> <b_lp_Chiralities_Consistent>
1

> <s_lp_Variant>
/home/yujie/leadopt/data/result/selection/sEH/lig_11i.sdf:1-2

> <s_i_glide_gridfile>
glide-grid_sEH

> <i_i_glide_lignum>
2

> <i_i_glide_rotatable_bonds>
11

> <r_i_docking_score>
-10.9774397031043

> <r_i_glide_ligand_efficiency>
-0.322865873620716

> <r_i_glide_ligand_efficiency_sa>
-1.04596009318196

> <r_i_glide_ligand_efficiency_ln>
-2.42522433716993

> <r_i_glide_gscore>
-12.3099097031043

> <r_i_glide_lipo>
-4.82775861116051

> <r_i_glide_hbond>
-0.72

> <r_i_glide_metal>
-0

> <r_i_glide_rewards>
-2.43964729416076

> <r_i_glide_evdw>
-52.9603996276855

> <r_i_glide_ecoul>
-14.8300867080688

> <r_i_glide_erotb>
0.750029189811522

> <r_i_glide_esite>
-0.2

> <r_i_glide_emodel>
-120.479070009558

> <r_i_glide_energy>
-67.7904863357544

> <r_i_glide_einternal>
4.07844972610474

> <i_i_glide_confnum>
208

> <i_i_glide_posenum>
305

> <r_i_glide_eff_state_penalty>
1.33247

$$$$
