@<TRIPOS>MOLECULE
/home/yujie/leadopt/data/result/selection/sEH/lig_6l.sdf:1
49   52    1
SMALL
USER_CHARGES


@<TRIPOS>ATOM
      1 O1         -1.7289  -15.8721   25.8973 O.2       1 UNK         0.0000 
      2 C2         -1.2730  -15.3235   26.8986 C.2       1 UNK         0.0000 
      3 C3         -0.1979  -14.2702   26.7636 C.ar      1 UNK         0.0000 
      4 C4          0.3375  -13.9864   25.4932 C.ar      1 UNK         0.0000 
      5 C5          1.2480  -12.9503   25.2952 C.ar      1 UNK         0.0000 
      6 C6          1.6298  -12.1977   26.3974 C.ar      1 UNK         0.0000 
      7 N7          2.4590  -11.1090   26.5250 N.pl3     1 UNK         0.0000 
      8 C8          3.1865  -10.4426   25.4369 C.3       1 UNK         0.0000 
      9 C9          4.7173  -10.5307   25.4310 C.ar      1 UNK         0.0000 
     10 C10         5.4151   -9.3632   25.0973 C.ar      1 UNK         0.0000 
     11 C11         6.8082   -9.3409   25.0796 C.ar      1 UNK         0.0000 
     12 C12         7.5255  -10.4912   25.3959 C.ar      1 UNK         0.0000 
     13 Cl13        9.2492  -10.4660   25.3748 Cl        1 UNK         0.0000 
     14 C14         6.8474  -11.6643   25.7173 C.ar      1 UNK         0.0000 
     15 C15         5.4514  -11.6987   25.7297 C.ar      1 UNK         0.0000 
     16 Cl16        4.7062  -13.2205   26.0767 Cl        1 UNK         0.0000 
     17 C17         2.4842  -10.6904   27.8171 C.ar      1 UNK         0.0000 
     18 N18         1.6942  -11.5501   28.4868 N.pl3     1 UNK         0.0000 
     19 O19         3.0739   -9.7330   28.2929 O.2       1 UNK         0.0000 
     20 C20         1.1462  -12.4743   27.6421 C.ar      1 UNK         0.0000 
     21 C21         0.2427  -13.5047   27.8589 C.ar      1 UNK         0.0000 
     22 N22        -1.7584  -15.5688   28.1216 N.am      1 UNK         0.0000 
     23 C23        -2.9248  -16.3957   28.4078 C.3       1 UNK         0.0000 
     24 C24        -2.7602  -17.8989   28.1446 C.ar      1 UNK         0.0000 
     25 C25        -3.7842  -18.6747   27.5590 C.ar      1 UNK         0.0000 
     26 C26        -5.0415  -18.0323   26.9573 C.3       1 UNK         0.0000 
     27 F27        -5.8449  -18.9296   26.3915 F         1 UNK         0.0000 
     28 F28        -5.7355  -17.3948   27.8970 F         1 UNK         0.0000 
     29 F29        -4.6989  -17.1614   26.0068 F         1 UNK         0.0000 
     30 C30        -3.6242  -20.0680   27.4948 C.ar      1 UNK         0.0000 
     31 C31        -2.4404  -20.6755   27.9054 C.ar      1 UNK         0.0000 
     32 C32        -1.3988  -19.8977   28.3983 C.ar      1 UNK         0.0000 
     33 C33        -1.5616  -18.5204   28.5230 C.ar      1 UNK         0.0000 
     34 H34         0.0229  -14.5317   24.6178 H         1 UNK         0.0000 
     35 H35         1.6209  -12.7417   24.3032 H         1 UNK         0.0000 
     36 H36         2.8242  -10.8027   24.4744 H         1 UNK         0.0000 
     37 H37         2.9036   -9.3902   25.4898 H         1 UNK         0.0000 
     38 H38         4.8768   -8.4583   24.8545 H         1 UNK         0.0000 
     39 H39         7.3306   -8.4305   24.8242 H         1 UNK         0.0000 
     40 H40         7.4086  -12.5573   25.9482 H         1 UNK         0.0000 
     41 H41         1.5103  -11.4853   29.4763 H         1 UNK         0.0000 
     42 H42        -0.1298  -13.6662   28.8527 H         1 UNK         0.0000 
     43 H43        -1.3298  -15.1154   28.9327 H         1 UNK         0.0000 
     44 H44        -3.7702  -15.9527   27.8838 H         1 UNK         0.0000 
     45 H45        -3.1539  -16.2718   29.4655 H         1 UNK         0.0000 
     46 H46        -4.4003  -20.6933   27.0770 H         1 UNK         0.0000 
     47 H47        -2.3239  -21.7464   27.8229 H         1 UNK         0.0000 
     48 H48        -0.4722  -20.3607   28.7098 H         1 UNK         0.0000 
     49 H49        -0.7572  -17.9376   28.9499 H         1 UNK         0.0000 
@<TRIPOS>BOND
     1    1    2 2    
     2    2    3 1    
     3    2   22 am   BACKBONE|DICT|INTERRES
     4    3   21 ar   
     5    3    4 ar   
     6    4    5 ar   
     7    4   34 1    
     8    5    6 ar   
     9    5   35 1    
    10    6    7 ar   
    11    6   20 ar   
    12    7    8 1    
    13    7   17 ar   
    14    8    9 1    
    15    8   36 1    
    16    8   37 1    
    17    9   15 ar   
    18    9   10 ar   
    19   10   11 ar   
    20   10   38 1    
    21   11   12 ar   
    22   11   39 1    
    23   12   13 1    
    24   12   14 ar   
    25   14   15 ar   
    26   14   40 1    
    27   15   16 1    
    28   17   18 ar   
    29   17   19 2    
    30   18   20 ar   
    31   18   41 1    
    32   20   21 ar   
    33   21   42 1    
    34   22   23 1    
    35   22   43 1    
    36   23   24 1    
    37   23   44 1    
    38   23   45 1    
    39   24   33 ar   
    40   24   25 ar   
    41   25   26 1    
    42   25   30 ar   
    43   26   27 1    
    44   26   28 1    
    45   26   29 1    
    46   30   31 ar   
    47   30   46 1    
    48   31   32 ar   
    49   31   47 1    
    50   32   33 ar   
    51   32   48 1    
    52   33   49 1    
@<TRIPOS>SUBSTRUCTURE
     1 UNK         1 GROUP             0       ****    0 ROOT    
