/home/yujie/leadopt/data/result/selection/sEH/lig_10a.sdf:1
                    3D
 Schrodinger Suite 2020-3.
 43 45  0  0  1  0            999 V2000
   -1.3290  -15.3329   25.6452 O   0  0  0  0  0  0
   -0.9197  -14.9766   26.7521 C   0  0  0  0  0  0
    0.2075  -13.9751   26.8634 C   0  0  0  0  0  0
    1.1456  -13.8745   25.8280 C   0  0  0  0  0  0
    2.1882  -12.9484   25.8411 C   0  0  0  0  0  0
    2.2682  -12.1009   26.9476 C   0  0  0  0  0  0
    3.1642  -11.0988   27.2577 N   0  0  0  0  0  0
    2.8422  -10.5344   28.4661 C   0  0  0  0  0  0
    1.7196  -11.1594   28.9682 C   0  0  0  0  0  0
    1.3334  -12.1637   28.0220 C   0  0  0  0  0  0
    0.2994  -13.1090   27.9636 C   0  0  0  0  0  0
   -1.4616  -15.4250   27.8972 N   0  0  0  0  0  0
   -2.6949  -16.2085   27.9869 C   0  0  0  0  0  0
   -2.5971  -17.7460   28.0107 C   0  0  0  0  0  0
   -3.7446  -18.5336   27.7794 C   0  0  0  0  0  0
   -5.1015  -17.9050   27.4364 C   0  0  0  0  0  0
   -5.3793  -16.9329   28.2969 F   0  0  0  0  0  0
   -5.0705  -17.3975   26.2034 F   0  0  0  0  0  0
   -6.1058  -18.7780   27.4961 F   0  0  0  0  0  0
   -3.6542  -19.9267   27.8990 C   0  0  0  0  0  0
   -2.4655  -20.5870   28.2144 C   0  0  0  0  0  0
   -2.5558  -21.9507   28.3572 N   0  5  0  0  0  0
   -1.3971  -23.0069   28.2963 S   0  0  0  0  0  0
   -1.2476  -23.3334   26.4558 C   0  0  0  0  0  0
   -0.0717  -22.5311   28.6972 O   0  0  0  0  0  0
   -1.8130  -24.2889   28.8697 O   0  0  0  0  0  0
   -1.3291  -19.7879   28.3922 C   0  0  0  0  0  0
   -1.3892  -18.3941   28.2971 C   0  0  0  0  0  0
    1.0708  -14.5312   24.9720 H   0  0  0  0  0  0
    2.8949  -12.8930   25.0267 H   0  0  0  0  0  0
    3.9557  -10.7961   26.7089 H   0  0  0  0  0  0
    3.4489   -9.7332   28.8659 H   0  0  0  0  0  0
    1.2335  -10.9266   29.9019 H   0  0  0  0  0  0
   -0.4289  -13.1458   28.7607 H   0  0  0  0  0  0
   -1.0743  -15.1254   28.7942 H   0  0  0  0  0  0
   -3.1826  -15.8971   28.9123 H   0  0  0  0  0  0
   -3.3532  -15.9024   27.1727 H   0  0  0  0  0  0
   -4.5396  -20.5280   27.7475 H   0  0  0  0  0  0
   -0.4733  -24.0825   26.3039 H   0  0  0  0  0  0
   -2.2059  -23.7002   26.0925 H   0  0  0  0  0  0
   -0.9835  -22.4042   25.9561 H   0  0  0  0  0  0
   -0.3809  -20.2227   28.6626 H   0  0  0  0  0  0
   -0.4918  -17.8222   28.4825 H   0  0  0  0  0  0
  1  2  2  0  0  0
  2  3  1  0  0  0
  2 12  1  0  0  0
  3 11  1  0  0  0
  3  4  2  0  0  0
  4  5  1  0  0  0
  4 29  1  0  0  0
  5  6  2  0  0  0
  5 30  1  0  0  0
  6  7  1  0  0  0
  6 10  1  0  0  0
  7  8  1  0  0  0
  7 31  1  0  0  0
  8  9  2  0  0  0
  8 32  1  0  0  0
  9 10  1  0  0  0
  9 33  1  0  0  0
 10 11  2  0  0  0
 11 34  1  0  0  0
 12 13  1  0  0  0
 12 35  1  0  0  0
 13 14  1  0  0  0
 13 36  1  0  0  0
 13 37  1  0  0  0
 14 28  1  0  0  0
 14 15  2  0  0  0
 15 16  1  0  0  0
 15 20  1  0  0  0
 16 17  1  0  0  0
 16 18  1  0  0  0
 16 19  1  0  0  0
 20 21  2  0  0  0
 20 38  1  0  0  0
 21 22  1  0  0  0
 21 27  1  0  0  0
 22 23  1  0  0  0
 23 24  1  0  0  0
 23 25  2  0  0  0
 23 26  2  0  0  0
 24 39  1  0  0  0
 24 40  1  0  0  0
 24 41  1  0  0  0
 27 28  2  0  0  0
 27 42  1  0  0  0
 28 43  1  0  0  0
M  CHG  1  22  -1
M  END
> <s_m_source_file>
/home/yujie/leadopt/data/result/selection/sEH/lig_10a.sdf

> <i_m_source_file_index>
1

> <i_lp_mmshare_version>
51139

> <i_f3d_flags>
0

> <s_epik_input>
W25IXTFbY0hdW2NIXWMoYzEyKVtjSF1jKFtjSF1bY0hdMilDKD1PKVtOSF1bQ0gyXWMzYyhDKEYpKEYpRilbY0hdYyhbY0hdW2NIXTMpW05IXVMoPU8pKD1PKVtDSDNd

> <s_epik_cmdline>
J2VwaWtfcHl0aG9uJywgJy1waHQnLCAnMi4wJywgJy1waCcsICc3LjAnLCAnLXRuJywgJzgnLCAnLW1hJywgJzIwMCcsICctaW1hZScsICc8aW5maWxlLm1hZT4nLCAnLW9tYWUnLCAnPG91dGZpbGUubWFlPic=

> <r_epik_Ionization_Penalty>
  1.1039

> <r_epik_Ionization_Penalty_Charging>
  1.1039

> <r_epik_Ionization_Penalty_Neutral>
  0.0000

> <r_epik_State_Penalty>
  1.1613

> <r_epik_Charging_Adjusted_Penalty>
2.26518

> <i_epik_Tot_Q>
-1

> <i_epik_Tot_abs_Q>
1

> <s_lp_Force_Field>
OPLS3e

> <r_lp_Energy>
26.8187

> <b_lp_Chiralities_Consistent>
1

> <s_lp_Variant>
/home/yujie/leadopt/data/result/selection/sEH/lig_10a.sdf:1-2

> <s_i_glide_gridfile>
glide-grid_sEH

> <i_i_glide_lignum>
2

> <i_i_glide_rotatable_bonds>
7

> <r_i_docking_score>
-10.6056582089655

> <r_i_glide_ligand_efficiency>
-0.378773507463054

> <r_i_glide_ligand_efficiency_sa>
-1.15017945432343

> <r_i_glide_ligand_efficiency_ln>
-2.44809731028524

> <r_i_glide_gscore>
-11.7669382089655

> <r_i_glide_lipo>
-3.8255563849699

> <r_i_glide_hbond>
-0.72

> <r_i_glide_metal>
-0

> <r_i_glide_rewards>
-2.65503611105231

> <r_i_glide_evdw>
-50.6488609313965

> <r_i_glide_ecoul>
-15.1800165176392

> <r_i_glide_erotb>
0.467869614421178

> <r_i_glide_esite>
-0.224769803148792

> <r_i_glide_emodel>
-109.877906147857

> <r_i_glide_energy>
-65.8288774490356

> <r_i_glide_einternal>
8.84133625030518

> <i_i_glide_confnum>
3

> <i_i_glide_posenum>
233

> <r_i_glide_eff_state_penalty>
1.16128

$$$$
