@<TRIPOS>MOLECULE
/home/yujie/leadopt/data/result/selection/sEH/lig_6a.sdf:1
49   52    1
SMALL
USER_CHARGES


@<TRIPOS>ATOM
      1 O1         -1.6420  -15.8048   25.8952 O.2       1 UNK         0.0000 
      2 C2         -1.3290  -15.2014   26.9150 C.2       1 UNK         0.0000 
      3 C3         -0.1970  -14.2039   26.8902 C.ar      1 UNK         0.0000 
      4 C4          0.7179  -14.1964   25.8191 C.ar      1 UNK         0.0000 
      5 C5          1.7242  -13.2356   25.7198 C.ar      1 UNK         0.0000 
      6 C6          1.8266  -12.2922   26.7346 C.ar      1 UNK         0.0000 
      7 N7          2.6729  -11.2279   26.9243 N.pl3     1 UNK         0.0000 
      8 C8          3.7824  -10.8044   26.0587 C.3       1 UNK         0.0000 
      9 C9          5.1731  -11.2204   26.5298 C.ar      1 UNK         0.0000 
     10 C10         6.2659  -10.3965   26.2477 C.ar      1 UNK         0.0000 
     11 C11         7.5307  -10.7272   26.7276 C.ar      1 UNK         0.0000 
     12 C12         7.6967  -11.8762   27.4971 C.ar      1 UNK         0.0000 
     13 C13         6.6148  -12.7023   27.7796 C.ar      1 UNK         0.0000 
     14 C14         5.3589  -12.3834   27.2815 C.ar      1 UNK         0.0000 
     15 C15         2.4254  -10.6467   28.1213 C.ar      1 UNK         0.0000 
     16 N16         1.3641  -11.2988   28.6301 N.pl3     1 UNK         0.0000 
     17 O17         3.0355   -9.7338   28.6478 O.2       1 UNK         0.0000 
     18 C18         0.9790  -12.3148   27.8042 C.ar      1 UNK         0.0000 
     19 C19        -0.0555  -13.2388   27.8975 C.ar      1 UNK         0.0000 
     20 N20        -1.9983  -15.3625   28.0658 N.am      1 UNK         0.0000 
     21 C21        -3.1441  -16.2490   28.2511 C.3       1 UNK         0.0000 
     22 C22        -2.8435  -17.7511   28.1135 C.ar      1 UNK         0.0000 
     23 C23        -3.7434  -18.6467   27.4950 C.ar      1 UNK         0.0000 
     24 C24        -5.0207  -18.1623   26.7920 C.3       1 UNK         0.0000 
     25 F25        -5.8076  -17.5179   27.6483 F         1 UNK         0.0000 
     26 F26        -4.7068  -17.3337   25.7962 F         1 UNK         0.0000 
     27 F27        -5.7254  -19.1679   26.2691 F         1 UNK         0.0000 
     28 C28        -3.4402  -20.0179   27.4973 C.ar      1 UNK         0.0000 
     29 C29        -2.2445  -20.4916   28.0336 C.ar      1 UNK         0.0000 
     30 C30        -1.3295  -19.6007   28.5802 C.ar      1 UNK         0.0000 
     31 C31        -1.6306  -18.2420   28.6242 C.ar      1 UNK         0.0000 
     32 H32         0.6619  -14.9314   25.0395 H         1 UNK         0.0000 
     33 H33         2.3958  -13.2398   24.8748 H         1 UNK         0.0000 
     34 H34         3.6250  -11.1955   25.0540 H         1 UNK         0.0000 
     35 H35         3.7498   -9.7178   25.9698 H         1 UNK         0.0000 
     36 H36         6.1342   -9.4939   25.6687 H         1 UNK         0.0000 
     37 H37         8.3767  -10.0895   26.5154 H         1 UNK         0.0000 
     38 H38         8.6708  -12.1325   27.8822 H         1 UNK         0.0000 
     39 H39         6.7395  -13.5918   28.3795 H         1 UNK         0.0000 
     40 H40         4.5264  -13.0319   27.4974 H         1 UNK         0.0000 
     41 H41         0.9511  -11.0861   29.5243 H         1 UNK         0.0000 
     42 H42        -0.7489  -13.1861   28.7228 H         1 UNK         0.0000 
     43 H43        -1.6281  -14.9329   28.9152 H         1 UNK         0.0000 
     44 H44        -3.9263  -15.9098   27.5738 H         1 UNK         0.0000 
     45 H45        -3.5315  -16.0789   29.2566 H         1 UNK         0.0000 
     46 H46        -4.1169  -20.7325   27.0502 H         1 UNK         0.0000 
     47 H47        -2.0216  -21.5492   28.0085 H         1 UNK         0.0000 
     48 H48        -0.3972  -19.9626   28.9913 H         1 UNK         0.0000 
     49 H49        -0.9205  -17.5702   29.0893 H         1 UNK         0.0000 
@<TRIPOS>BOND
     1    1    2 2    
     2    2    3 1    
     3    2   20 am   BACKBONE|DICT|INTERRES
     4    3   19 ar   
     5    3    4 ar   
     6    4    5 ar   
     7    4   32 1    
     8    5    6 ar   
     9    5   33 1    
    10    6    7 ar   
    11    6   18 ar   
    12    7    8 1    
    13    7   15 ar   
    14    8    9 1    
    15    8   34 1    
    16    8   35 1    
    17    9   14 ar   
    18    9   10 ar   
    19   10   11 ar   
    20   10   36 1    
    21   11   12 ar   
    22   11   37 1    
    23   12   13 ar   
    24   12   38 1    
    25   13   14 ar   
    26   13   39 1    
    27   14   40 1    
    28   15   16 ar   
    29   15   17 2    
    30   16   18 ar   
    31   16   41 1    
    32   18   19 ar   
    33   19   42 1    
    34   20   21 1    
    35   20   43 1    
    36   21   22 1    
    37   21   44 1    
    38   21   45 1    
    39   22   31 ar   
    40   22   23 ar   
    41   23   24 1    
    42   23   28 ar   
    43   24   25 1    
    44   24   26 1    
    45   24   27 1    
    46   28   29 ar   
    47   28   46 1    
    48   29   30 ar   
    49   29   47 1    
    50   30   31 ar   
    51   30   48 1    
    52   31   49 1    
@<TRIPOS>SUBSTRUCTURE
     1 UNK         1 GROUP             0       ****    0 ROOT    
