@<TRIPOS>MOLECULE
/home/yujie/leadopt/data/result/selection/sEH/lig_11d.sdf:1
56   59    1
SMALL
USER_CHARGES


@<TRIPOS>ATOM
      1 O1         -1.3289  -15.3329   25.6664 O.2       1 UNK         0.0000 
      2 C2         -0.9763  -14.9249   26.7749 C.2       1 UNK         0.0000 
      3 C3          0.1897  -13.9734   26.8995 C.ar      1 UNK         0.0000 
      4 C4          1.1581  -13.9418   25.8899 C.ar      1 UNK         0.0000 
      5 C5          2.2460  -13.0739   25.9133 C.ar      1 UNK         0.0000 
      6 C6          2.3546  -12.2138   27.0127 C.ar      1 UNK         0.0000 
      7 N7          3.3287  -11.2829   27.3434 N.pl3     1 UNK         0.0000 
      8 C8          4.5009  -10.9623   26.5168 C.3       1 UNK         0.0000 
      9 C9          5.7398  -10.6399   27.3756 C.3       1 UNK         0.0000 
     10 C10         4.1394   -9.8426   25.5227 C.3       1 UNK         0.0000 
     11 C11         2.9478  -10.6493   28.5088 C.ar      1 UNK         0.0000 
     12 C12         1.7799  -11.1981   28.9887 C.ar      1 UNK         0.0000 
     13 C13         1.3775  -12.2010   28.0538 C.ar      1 UNK         0.0000 
     14 C14         0.2955  -13.0881   27.9832 C.ar      1 UNK         0.0000 
     15 N15        -1.6331  -15.2629   27.8972 N.am      1 UNK         0.0000 
     16 C16        -2.8622  -16.0607   27.9285 C.3       1 UNK         0.0000 
     17 C17        -2.7253  -17.5938   27.9127 C.ar      1 UNK         0.0000 
     18 C18        -3.8194  -18.4128   27.5617 C.ar      1 UNK         0.0000 
     19 C19        -5.1379  -17.8247   27.0384 C.3       1 UNK         0.0000 
     20 F20        -6.0774  -18.7497   26.8668 F         1 UNK         0.0000 
     21 F21        -5.6202  -16.9330   27.8973 F         1 UNK         0.0000 
     22 F22        -4.9357  -17.2348   25.8589 F         1 UNK         0.0000 
     23 C23        -3.7104  -19.8008   27.7210 C.ar      1 UNK         0.0000 
     24 C24        -2.5485  -20.4214   28.1840 C.ar      1 UNK         0.0000 
     25 N25        -2.6346  -21.7736   28.4146 N.2       1 UNK         0.0000 
     26 S26        -1.4484  -22.7865   28.6169 S.o2      1 UNK         0.0000 
     27 C27        -1.7114  -24.1133   27.2721 C.3       1 UNK         0.0000 
     28 C28        -3.1271  -24.4876   26.8865 C.3       1 UNK         0.0000 
     29 C29        -2.2728  -23.6757   25.9358 C.3       1 UNK         0.0000 
     30 O30        -0.1191  -22.2584   28.3022 O.2       1 UNK         0.0000 
     31 O31        -1.5748  -23.5210   29.8801 O.2       1 UNK         0.0000 
     32 C32        -1.4447  -19.5952   28.4357 C.ar      1 UNK         0.0000 
     33 C33        -1.5276  -18.2083   28.2986 C.ar      1 UNK         0.0000 
     34 H34         1.0760  -14.6086   25.0433 H         1 UNK         0.0000 
     35 H35         2.9740  -13.0831   25.1165 H         1 UNK         0.0000 
     36 H36         4.7541  -11.8611   25.9511 H         1 UNK         0.0000 
     37 H37         6.6238  -10.5024   26.7505 H         1 UNK         0.0000 
     38 H38         5.9578  -11.4484   28.0745 H         1 UNK         0.0000 
     39 H39         5.6139   -9.7327   27.9558 H         1 UNK         0.0000 
     40 H40         4.9841   -9.5930   24.8816 H         1 UNK         0.0000 
     41 H41         3.3151  -10.1431   24.8732 H         1 UNK         0.0000 
     42 H42         3.8320   -8.9339   26.0373 H         1 UNK         0.0000 
     43 H43         3.5567   -9.8535   28.9141 H         1 UNK         0.0000 
     44 H44         1.2729  -10.9106   29.8974 H         1 UNK         0.0000 
     45 H45        -0.4552  -13.0680   28.7585 H         1 UNK         0.0000 
     46 H46        -1.2974  -14.9393   28.8088 H         1 UNK         0.0000 
     47 H47        -3.3934  -15.7907   28.8443 H         1 UNK         0.0000 
     48 H48        -3.4936  -15.7335   27.1035 H         1 UNK         0.0000 
     49 H49        -4.5612  -20.4287   27.4978 H         1 UNK         0.0000 
     50 H50        -0.9392  -24.8787   27.3195 H         1 UNK         0.0000 
     51 H51        -3.3355  -25.5307   26.6530 H         1 UNK         0.0000 
     52 H52        -3.9558  -24.0074   27.4062 H         1 UNK         0.0000 
     53 H53        -2.5062  -22.6227   25.7792 H         1 UNK         0.0000 
     54 H54        -1.8779  -24.1492   25.0391 H         1 UNK         0.0000 
     55 H55        -0.5202  -20.0014   28.8160 H         1 UNK         0.0000 
     56 H56        -0.6660  -17.6136   28.5643 H         1 UNK         0.0000 
@<TRIPOS>BOND
     1    1    2 2    
     2    2    3 1    
     3    2   15 am   BACKBONE|DICT|INTERRES
     4    3   14 ar   
     5    3    4 ar   
     6    4    5 ar   
     7    4   34 1    
     8    5    6 ar   
     9    5   35 1    
    10    6    7 ar   
    11    6   13 ar   
    12    7    8 1    
    13    7   11 ar   
    14    8    9 1    
    15    8   10 1    
    16    8   36 1    
    17    9   37 1    
    18    9   38 1    
    19    9   39 1    
    20   10   40 1    
    21   10   41 1    
    22   10   42 1    
    23   11   12 ar   
    24   11   43 1    
    25   12   13 ar   
    26   12   44 1    
    27   13   14 ar   
    28   14   45 1    
    29   15   16 1    
    30   15   46 1    
    31   16   17 1    
    32   16   47 1    
    33   16   48 1    
    34   17   33 ar   
    35   17   18 ar   
    36   18   19 1    
    37   18   23 ar   
    38   19   20 1    
    39   19   21 1    
    40   19   22 1    
    41   23   24 ar   
    42   23   49 1    
    43   24   25 1    
    44   24   32 ar   
    45   25   26 1    
    46   26   27 1    
    47   26   30 2    
    48   26   31 2    
    49   27   29 1    
    50   27   28 1    
    51   27   50 1    
    52   28   29 1    
    53   28   51 1    
    54   28   52 1    
    55   29   53 1    
    56   29   54 1    
    57   32   33 ar   
    58   32   55 1    
    59   33   56 1    
@<TRIPOS>SUBSTRUCTURE
     1 UNK         1 GROUP             0       ****    0 ROOT    
