@<TRIPOS>MOLECULE
/home/yujie/leadopt/data/result/selection/sEH/lig_6e.sdf:1
49   52    1
SMALL
USER_CHARGES


@<TRIPOS>ATOM
      1 O1         -1.6351  -15.9489   25.8972 O.2       1 UNK         0.0000 
      2 C2         -1.3293  -15.3415   26.9177 C.2       1 UNK         0.0000 
      3 C3         -0.2510  -14.2866   26.8784 C.ar      1 UNK         0.0000 
      4 C4          0.6257  -14.1977   25.7791 C.ar      1 UNK         0.0000 
      5 C5          1.5445  -13.1549   25.6552 C.ar      1 UNK         0.0000 
      6 C6          1.6131  -12.2260   26.6853 C.ar      1 UNK         0.0000 
      7 N7          2.3849  -11.1055   26.8740 N.pl3     1 UNK         0.0000 
      8 C8          3.3949  -10.5563   25.9595 C.3       1 UNK         0.0000 
      9 C9          4.8371  -10.9262   26.2853 C.ar      1 UNK         0.0000 
     10 C10         5.1298  -12.0190   27.1066 C.ar      1 UNK         0.0000 
     11 C11         6.4373  -12.2966   27.4714 C.ar      1 UNK         0.0000 
     12 F12         6.6714  -13.3327   28.2972 F         1 UNK         0.0000 
     13 C13         7.4809  -11.5061   26.9960 C.ar      1 UNK         0.0000 
     14 C14         7.2051  -10.4254   26.1564 C.ar      1 UNK         0.0000 
     15 C15         5.8847  -10.1337   25.8057 C.ar      1 UNK         0.0000 
     16 C16         2.1973  -10.6206   28.1263 C.ar      1 UNK         0.0000 
     17 N17         1.1863  -11.3383   28.6443 N.pl3     1 UNK         0.0000 
     18 O18         2.8150   -9.7333   28.6865 O.2       1 UNK         0.0000 
     19 C19         0.8264  -12.3438   27.7945 C.ar      1 UNK         0.0000 
     20 C20        -0.1378  -13.3326   27.8972 C.ar      1 UNK         0.0000 
     21 N21        -1.9938  -15.5216   28.0697 N.am      1 UNK         0.0000 
     22 C22        -3.2070  -16.3242   28.2368 C.3       1 UNK         0.0000 
     23 C23        -3.0767  -17.8294   27.9498 C.ar      1 UNK         0.0000 
     24 C24        -4.0725  -18.5637   27.2652 C.ar      1 UNK         0.0000 
     25 C25        -5.2652  -17.8817   26.5805 C.3       1 UNK         0.0000 
     26 F26        -6.0619  -17.3354   27.4970 F         1 UNK         0.0000 
     27 F27        -4.8412  -16.9332   25.7440 F         1 UNK         0.0000 
     28 F28        -5.9922  -18.7331   25.8570 F         1 UNK         0.0000 
     29 C29        -3.9471  -19.9598   27.1822 C.ar      1 UNK         0.0000 
     30 C30        -2.8318  -20.6133   27.7031 C.ar      1 UNK         0.0000 
     31 C31        -1.8122  -19.8778   28.2973 C.ar      1 UNK         0.0000 
     32 C32        -1.9350  -18.4964   28.4137 C.ar      1 UNK         0.0000 
     33 H33         0.6003  -14.9319   24.9971 H         1 UNK         0.0000 
     34 H34         2.1826  -13.0916   24.7861 H         1 UNK         0.0000 
     35 H35         3.1739  -10.8860   24.9443 H         1 UNK         0.0000 
     36 H36         3.3016   -9.4693   25.9552 H         1 UNK         0.0000 
     37 H37         4.3477  -12.6510   27.4972 H         1 UNK         0.0000 
     38 H38         8.4964  -11.7301   27.2822 H         1 UNK         0.0000 
     39 H39         8.0108   -9.8079   25.7885 H         1 UNK         0.0000 
     40 H40         5.6773   -9.2833   25.1724 H         1 UNK         0.0000 
     41 H41         0.8182  -11.2020   29.5732 H         1 UNK         0.0000 
     42 H42        -0.8110  -13.3328   28.7346 H         1 UNK         0.0000 
     43 H43        -1.6397  -15.0700   28.9143 H         1 UNK         0.0000 
     44 H44        -3.9997  -15.8427   27.6674 H         1 UNK         0.0000 
     45 H45        -3.5141  -16.2221   29.2788 H         1 UNK         0.0000 
     46 H46        -4.7013  -20.5539   26.6864 H         1 UNK         0.0000 
     47 H47        -2.7456  -21.6866   27.6187 H         1 UNK         0.0000 
     48 H48        -0.9330  -20.3748   28.6825 H         1 UNK         0.0000 
     49 H49        -1.1504  -17.9458   28.9143 H         1 UNK         0.0000 
@<TRIPOS>BOND
     1    1    2 2    
     2    2    3 1    
     3    2   21 am   BACKBONE|DICT|INTERRES
     4    3   20 ar   
     5    3    4 ar   
     6    4    5 ar   
     7    4   33 1    
     8    5    6 ar   
     9    5   34 1    
    10    6    7 ar   
    11    6   19 ar   
    12    7    8 1    
    13    7   16 ar   
    14    8    9 1    
    15    8   35 1    
    16    8   36 1    
    17    9   15 ar   
    18    9   10 ar   
    19   10   11 ar   
    20   10   37 1    
    21   11   12 1    
    22   11   13 ar   
    23   13   14 ar   
    24   13   38 1    
    25   14   15 ar   
    26   14   39 1    
    27   15   40 1    
    28   16   17 ar   
    29   16   18 2    
    30   17   19 ar   
    31   17   41 1    
    32   19   20 ar   
    33   20   42 1    
    34   21   22 1    
    35   21   43 1    
    36   22   23 1    
    37   22   44 1    
    38   22   45 1    
    39   23   32 ar   
    40   23   24 ar   
    41   24   25 1    
    42   24   29 ar   
    43   25   26 1    
    44   25   27 1    
    45   25   28 1    
    46   29   30 ar   
    47   29   46 1    
    48   30   31 ar   
    49   30   47 1    
    50   31   32 ar   
    51   31   48 1    
    52   32   49 1    
@<TRIPOS>SUBSTRUCTURE
     1 UNK         1 GROUP             0       ****    0 ROOT    
