@<TRIPOS>MOLECULE
/home/yujie/leadopt/data/result/selection/sEH/lig_8f.sdf:1
56   59    1
SMALL
USER_CHARGES


@<TRIPOS>ATOM
      1 O1         -1.3289  -15.6112   25.8505 O.2       1 UNK         0.0000 
      2 C2         -1.1474  -14.9258   26.8538 C.2       1 UNK         0.0000 
      3 C3         -0.0325  -13.8994   26.9095 C.ar      1 UNK         0.0000 
      4 C4          0.8481  -13.7717   25.8246 C.ar      1 UNK         0.0000 
      5 C5          1.8468  -12.8017   25.7679 C.ar      1 UNK         0.0000 
      6 C6          1.9499  -11.9281   26.8557 C.ar      1 UNK         0.0000 
      7 N7          2.7818  -10.8402   27.0851 N.pl3     1 UNK         0.0000 
      8 C8          3.8516  -10.3667   26.2140 C.3       1 UNK         0.0000 
      9 C9          5.2070  -10.9918   26.5163 C.ar      1 UNK         0.0000 
     10 C10         5.8965  -11.6955   25.5231 C.ar      1 UNK         0.0000 
     11 C11         7.1463  -12.2497   25.7973 C.ar      1 UNK         0.0000 
     12 F12         7.8072  -12.9332   24.8361 F         1 UNK         0.0000 
     13 C13         7.7147  -12.1028   27.0620 C.ar      1 UNK         0.0000 
     14 C14         7.0355  -11.4010   28.0563 C.ar      1 UNK         0.0000 
     15 C15         5.7876  -10.8480   27.7819 C.ar      1 UNK         0.0000 
     16 C16         2.4991  -10.3144   28.3239 C.ar      1 UNK         0.0000 
     17 C17         1.4897  -11.0305   28.9217 C.ar      1 UNK         0.0000 
     18 C18         1.1003  -12.0471   27.9952 C.ar      1 UNK         0.0000 
     19 C19         0.1191  -13.0430   28.0106 C.ar      1 UNK         0.0000 
     20 N20        -1.9845  -15.0162   27.8974 N.am      1 UNK         0.0000 
     21 C21        -3.1404  -15.9181   27.9841 C.3       1 UNK         0.0000 
     22 C22        -2.8367  -17.4279   27.9842 C.ar      1 UNK         0.0000 
     23 C23        -3.7189  -18.3773   27.4162 C.ar      1 UNK         0.0000 
     24 C24        -5.0163  -17.9687   26.7004 C.3       1 UNK         0.0000 
     25 F25        -5.7955  -17.2856   27.5319 F         1 UNK         0.0000 
     26 F26        -4.7376  -17.2107   25.6389 F         1 UNK         0.0000 
     27 F27        -5.7200  -19.0157   26.2678 F         1 UNK         0.0000 
     28 C28        -3.3938  -19.7401   27.4972 C.ar      1 UNK         0.0000 
     29 C29        -2.2071  -20.1730   28.0878 C.ar      1 UNK         0.0000 
     30 C30        -1.8617  -21.6550   28.1151 C.3       1 UNK         0.0000 
     31 S31        -3.0567  -22.6114   29.0974 S.3       1 UNK         0.0000 
     32 C32        -2.3880  -24.2828   28.8778 C.3       1 UNK         0.0000 
     33 C33        -1.3277  -19.2297   28.6149 C.ar      1 UNK         0.0000 
     34 C34        -1.6385  -17.8745   28.5625 C.ar      1 UNK         0.0000 
     35 H35         0.7543  -14.4329   24.9745 H         1 UNK         0.0000 
     36 H36         2.4927  -12.7221   24.9054 H         1 UNK         0.0000 
     37 H37         3.5557  -10.5542   25.1793 H         1 UNK         0.0000 
     38 H38         3.9198   -9.2840   26.3108 H         1 UNK         0.0000 
     39 H39         5.4703  -11.8151   24.5365 H         1 UNK         0.0000 
     40 H40         8.6814  -12.5328   27.2685 H         1 UNK         0.0000 
     41 H41         7.4706  -11.2811   29.0383 H         1 UNK         0.0000 
     42 H42         5.2801  -10.2996   28.5623 H         1 UNK         0.0000 
     43 H43         3.0596   -9.4646   28.6859 H         1 UNK         0.0000 
     44 H44         1.0701  -10.8397   29.8969 H         1 UNK         0.0000 
     45 H45        -0.5306  -13.1063   28.8673 H         1 UNK         0.0000 
     46 H46        -1.7257  -14.5584   28.7723 H         1 UNK         0.0000 
     47 H47        -3.8230  -15.6533   27.1800 H         1 UNK         0.0000 
     48 H48        -3.6700  -15.6864   28.9120 H         1 UNK         0.0000 
     49 H49        -4.0550  -20.4834   27.0745 H         1 UNK         0.0000 
     50 H50        -0.8581  -21.8165   28.5117 H         1 UNK         0.0000 
     51 H51        -1.8619  -22.0377   27.0941 H         1 UNK         0.0000 
     52 H52        -3.0000  -25.0064   29.4169 H         1 UNK         0.0000 
     53 H53        -1.3685  -24.3419   29.2597 H         1 UNK         0.0000 
     54 H54        -2.3812  -24.5578   27.8227 H         1 UNK         0.0000 
     55 H55        -0.4022  -19.5418   29.0823 H         1 UNK         0.0000 
     56 H56        -0.9453  -17.1672   28.9964 H         1 UNK         0.0000 
@<TRIPOS>BOND
     1    1    2 2    
     2    2    3 1    
     3    2   20 am   BACKBONE|DICT|INTERRES
     4    3   19 ar   
     5    3    4 ar   
     6    4    5 ar   
     7    4   35 1    
     8    5    6 ar   
     9    5   36 1    
    10    6    7 ar   
    11    6   18 ar   
    12    7    8 1    
    13    7   16 ar   
    14    8    9 1    
    15    8   37 1    
    16    8   38 1    
    17    9   15 ar   
    18    9   10 ar   
    19   10   11 ar   
    20   10   39 1    
    21   11   12 1    
    22   11   13 ar   
    23   13   14 ar   
    24   13   40 1    
    25   14   15 ar   
    26   14   41 1    
    27   15   42 1    
    28   16   17 ar   
    29   16   43 1    
    30   17   18 ar   
    31   17   44 1    
    32   18   19 ar   
    33   19   45 1    
    34   20   21 1    
    35   20   46 1    
    36   21   22 1    
    37   21   47 1    
    38   21   48 1    
    39   22   34 ar   
    40   22   23 ar   
    41   23   24 1    
    42   23   28 ar   
    43   24   25 1    
    44   24   26 1    
    45   24   27 1    
    46   28   29 ar   
    47   28   49 1    
    48   29   30 1    
    49   29   33 ar   
    50   30   31 1    
    51   30   50 1    
    52   30   51 1    
    53   31   32 1    
    54   32   52 1    
    55   32   53 1    
    56   32   54 1    
    57   33   34 ar   
    58   33   55 1    
    59   34   56 1    
@<TRIPOS>SUBSTRUCTURE
     1 UNK         1 GROUP             0       ****    0 ROOT    
