@<TRIPOS>MOLECULE
/home/yujie/leadopt/data/result/selection/sEH/lig_6j.sdf:1
49   52    1
SMALL
USER_CHARGES


@<TRIPOS>ATOM
      1 O1         -1.6083  -15.7329   25.8810 O.2       1 UNK         0.0000 
      2 C2         -1.3289  -15.1723   26.9367 C.2       1 UNK         0.0000 
      3 C3         -0.1264  -14.2663   27.0140 C.ar      1 UNK         0.0000 
      4 C4          0.9704  -14.4977   26.1637 C.ar      1 UNK         0.0000 
      5 C5          2.0998  -13.6832   26.1810 C.ar      1 UNK         0.0000 
      6 C6          2.1334  -12.6349   27.0906 C.ar      1 UNK         0.0000 
      7 N7          3.1222  -11.7330   27.4191 N.pl3     1 UNK         0.0000 
      8 C8          4.5153  -11.7169   26.9489 C.3       1 UNK         0.0000 
      9 C9          4.7193  -11.7228   25.4388 C.ar      1 UNK         0.0000 
     10 C10         4.0393  -10.8164   24.6205 C.ar      1 UNK         0.0000 
     11 C11         4.2728  -10.8131   23.2472 C.ar      1 UNK         0.0000 
     12 C12         5.1761  -11.7181   22.6944 C.ar      1 UNK         0.0000 
     13 Cl13        5.4720  -11.7030   20.9941 Cl        1 UNK         0.0000 
     14 C14         5.8502  -12.6287   23.5045 C.ar      1 UNK         0.0000 
     15 C15         5.6250  -12.6281   24.8782 C.ar      1 UNK         0.0000 
     16 C16         2.7185  -10.9638   28.4582 C.ar      1 UNK         0.0000 
     17 N17         1.4500  -11.3378   28.7143 N.pl3     1 UNK         0.0000 
     18 O18         3.3728  -10.1333   29.0700 O.2       1 UNK         0.0000 
     19 C19         1.0751  -12.3882   27.9205 C.ar      1 UNK         0.0000 
     20 C20        -0.0726  -13.1784   27.9019 C.ar      1 UNK         0.0000 
     21 N21        -2.0751  -15.3274   28.0387 N.am      1 UNK         0.0000 
     22 C22        -3.2842  -16.1519   28.1289 C.3       1 UNK         0.0000 
     23 C23        -3.0934  -17.6647   27.9091 C.ar      1 UNK         0.0000 
     24 C24        -4.0659  -18.4698   27.2706 C.ar      1 UNK         0.0000 
     25 C25        -5.3020  -17.8739   26.5834 C.3       1 UNK         0.0000 
     26 F26        -6.1117  -17.3425   27.4963 F         1 UNK         0.0000 
     27 F27        -4.9486  -16.9356   25.7037 F         1 UNK         0.0000 
     28 F28        -5.9931  -18.7892   25.9048 F         1 UNK         0.0000 
     29 C29        -3.8796  -19.8614   27.2376 C.ar      1 UNK         0.0000 
     30 C30        -2.7252  -20.4454   27.7534 C.ar      1 UNK         0.0000 
     31 C31        -1.7285  -19.6434   28.2950 C.ar      1 UNK         0.0000 
     32 C32        -1.9141  -18.2664   28.3730 C.ar      1 UNK         0.0000 
     33 H33         0.9812  -15.3354   25.4966 H         1 UNK         0.0000 
     34 H34         2.9338  -13.9033   25.5312 H         1 UNK         0.0000 
     35 H35         5.0550  -10.8573   27.3530 H         1 UNK         0.0000 
     36 H36         5.0001  -12.5994   27.3702 H         1 UNK         0.0000 
     37 H37         3.3403  -10.1125   25.0468 H         1 UNK         0.0000 
     38 H38         3.7613  -10.1110   22.6062 H         1 UNK         0.0000 
     39 H39         6.5522  -13.3234   23.0700 H         1 UNK         0.0000 
     40 H40         6.1590  -13.3274   25.5039 H         1 UNK         0.0000 
     41 H41         0.8885  -10.9420   29.4524 H         1 UNK         0.0000 
     42 H42        -0.8913  -12.9675   28.5779 H         1 UNK         0.0000 
     43 H43        -1.7287  -14.9329   28.9158 H         1 UNK         0.0000 
     44 H44        -4.0246  -15.7181   27.4613 H         1 UNK         0.0000 
     45 H45        -3.6912  -16.0183   29.1322 H         1 UNK         0.0000 
     46 H46        -4.6163  -20.5073   26.7816 H         1 UNK         0.0000 
     47 H47        -2.5915  -21.5164   27.7042 H         1 UNK         0.0000 
     48 H48        -0.8187  -20.0863   28.6774 H         1 UNK         0.0000 
     49 H49        -1.1436  -17.6687   28.8397 H         1 UNK         0.0000 
@<TRIPOS>BOND
     1    1    2 2    
     2    2    3 1    
     3    2   21 am   BACKBONE|DICT|INTERRES
     4    3   20 ar   
     5    3    4 ar   
     6    4    5 ar   
     7    4   33 1    
     8    5    6 ar   
     9    5   34 1    
    10    6    7 ar   
    11    6   19 ar   
    12    7    8 1    
    13    7   16 ar   
    14    8    9 1    
    15    8   35 1    
    16    8   36 1    
    17    9   15 ar   
    18    9   10 ar   
    19   10   11 ar   
    20   10   37 1    
    21   11   12 ar   
    22   11   38 1    
    23   12   13 1    
    24   12   14 ar   
    25   14   15 ar   
    26   14   39 1    
    27   15   40 1    
    28   16   17 ar   
    29   16   18 2    
    30   17   19 ar   
    31   17   41 1    
    32   19   20 ar   
    33   20   42 1    
    34   21   22 1    
    35   21   43 1    
    36   22   23 1    
    37   22   44 1    
    38   22   45 1    
    39   23   32 ar   
    40   23   24 ar   
    41   24   25 1    
    42   24   29 ar   
    43   25   26 1    
    44   25   27 1    
    45   25   28 1    
    46   29   30 ar   
    47   29   46 1    
    48   30   31 ar   
    49   30   47 1    
    50   31   32 ar   
    51   31   48 1    
    52   32   49 1    
@<TRIPOS>SUBSTRUCTURE
     1 UNK         1 GROUP             0       ****    0 ROOT    
