@<TRIPOS>MOLECULE
/home/yujie/leadopt/data/result/selection/sEH/lig_11o.sdf:1
62   65    1
SMALL
USER_CHARGES


@<TRIPOS>ATOM
      1 O1         -1.4850  -15.3329   25.6496 O.2       1 UNK         0.0000 
      2 C2         -0.9753  -14.9536   26.7050 C.2       1 UNK         0.0000 
      3 C3          0.2379  -14.0563   26.6694 C.ar      1 UNK         0.0000 
      4 C4          0.9590  -13.9750   25.4771 C.ar      1 UNK         0.0000 
      5 C5          2.1089  -13.2157   25.3355 C.ar      1 UNK         0.0000 
      6 C6          2.5705  -12.5421   26.4611 C.ar      1 UNK         0.0000 
      7 C7          1.8282  -12.5328   27.6751 C.ar      1 UNK         0.0000 
      8 C8          2.5547  -11.6972   28.5705 C.ar      1 UNK         0.0000 
      9 C9          3.7359  -11.3275   27.9524 C.ar      1 UNK         0.0000 
     10 C10         4.8829  -10.5541   28.5368 C.3       1 UNK         0.0000 
     11 N11         3.7447  -11.8375   26.6630 N.pl3     1 UNK         0.0000 
     12 S12         4.9718  -11.6236   25.4425 S.o2      1 UNK         0.0000 
     13 C13         4.1820  -10.3088   24.3139 C.3       1 UNK         0.0000 
     14 C14         5.0941  -10.0834   23.0955 C.3       1 UNK         0.0000 
     15 C15         3.9208   -9.0107   25.0969 C.3       1 UNK         0.0000 
     16 O16         5.0410  -12.8944   24.7123 O.2       1 UNK         0.0000 
     17 O17         6.1725  -11.0716   26.0778 O.2       1 UNK         0.0000 
     18 C18         0.6485  -13.2926   27.7730 C.ar      1 UNK         0.0000 
     19 N19        -1.4744  -15.3126   27.8972 N.am      1 UNK         0.0000 
     20 C20        -2.7007  -16.0948   28.0795 C.3       1 UNK         0.0000 
     21 C21        -2.5992  -17.6330   28.0225 C.ar      1 UNK         0.0000 
     22 C22        -3.7378  -18.4240   27.7587 C.ar      1 UNK         0.0000 
     23 C23        -5.0825  -17.8045   27.3657 C.3       1 UNK         0.0000 
     24 F24        -5.4419  -16.9329   28.2972 F         1 UNK         0.0000 
     25 F25        -4.9792  -17.1804   26.1914 F         1 UNK         0.0000 
     26 F26        -6.0645  -18.6983   27.2619 F         1 UNK         0.0000 
     27 C27        -3.6509  -19.8150   27.8972 C.ar      1 UNK         0.0000 
     28 C28        -2.4697  -20.4694   28.2463 C.ar      1 UNK         0.0000 
     29 N29        -2.5715  -21.8242   28.4439 N.2       1 UNK         0.0000 
     30 S30        -1.4289  -22.8923   28.3364 S.o2      1 UNK         0.0000 
     31 C31        -1.4098  -23.2526   26.4752 C.3       1 UNK         0.0000 
     32 C32        -0.8940  -24.6001   26.0282 C.3       1 UNK         0.0000 
     33 C33        -2.3786  -24.2963   25.9660 C.3       1 UNK         0.0000 
     34 O34        -0.0796  -22.4104   28.6392 O.2       1 UNK         0.0000 
     35 O35        -1.8131  -24.1468   28.9915 O.2       1 UNK         0.0000 
     36 C36        -1.3290  -19.6726   28.4071 C.ar      1 UNK         0.0000 
     37 C37        -1.3885  -18.2804   28.2973 C.ar      1 UNK         0.0000 
     38 H38         0.6407  -14.5328   24.6088 H         1 UNK         0.0000 
     39 H39         2.6410  -13.1996   24.3986 H         1 UNK         0.0000 
     40 H40         2.2901  -11.4505   29.5878 H         1 UNK         0.0000 
     41 H41         4.6129  -10.1329   29.4980 H         1 UNK         0.0000 
     42 H42         5.7570  -11.1850   28.6976 H         1 UNK         0.0000 
     43 H43         5.1870   -9.7329   27.8970 H         1 UNK         0.0000 
     44 H44         3.2353  -10.7325   23.9786 H         1 UNK         0.0000 
     45 H45         4.6708   -9.3505   22.4076 H         1 UNK         0.0000 
     46 H46         5.2372  -11.0096   22.5374 H         1 UNK         0.0000 
     47 H47         6.0797   -9.7274   23.3977 H         1 UNK         0.0000 
     48 H48         3.4711   -8.2498   24.4585 H         1 UNK         0.0000 
     49 H49         3.2418   -9.1775   25.9336 H         1 UNK         0.0000 
     50 H50         4.8493   -8.6026   25.4971 H         1 UNK         0.0000 
     51 H51         0.0916  -13.3059   28.7003 H         1 UNK         0.0000 
     52 H52        -1.0508  -14.9800   28.7665 H         1 UNK         0.0000 
     53 H53        -3.0928  -15.8366   29.0650 H         1 UNK         0.0000 
     54 H54        -3.4344  -15.7330   27.3594 H         1 UNK         0.0000 
     55 H55        -4.5346  -20.4182   27.7440 H         1 UNK         0.0000 
     56 H56        -1.2053  -22.3542   25.8973 H         1 UNK         0.0000 
     57 H57        -0.3200  -24.6538   25.1033 H         1 UNK         0.0000 
     58 H58        -0.5289  -25.2948   26.7850 H         1 UNK         0.0000 
     59 H59        -3.0495  -24.7770   26.6794 H         1 UNK         0.0000 
     60 H60        -2.8571  -24.1333   25.0016 H         1 UNK         0.0000 
     61 H61        -0.3858  -20.1065   28.6970 H         1 UNK         0.0000 
     62 H62        -0.4946  -17.7066   28.4953 H         1 UNK         0.0000 
@<TRIPOS>BOND
     1    1    2 2    
     2    2    3 1    
     3    2   19 am   BACKBONE|DICT|INTERRES
     4    3   18 ar   
     5    3    4 ar   
     6    4    5 ar   
     7    4   38 1    
     8    5    6 ar   
     9    5   39 1    
    10    6   11 ar   
    11    6    7 ar   
    12    7    8 ar   
    13    7   18 ar   
    14    8    9 ar   
    15    8   40 1    
    16    9   10 1    
    17    9   11 ar   
    18   10   41 1    
    19   10   42 1    
    20   10   43 1    
    21   11   12 1    
    22   12   13 1    
    23   12   16 2    
    24   12   17 2    
    25   13   14 1    
    26   13   15 1    
    27   13   44 1    
    28   14   45 1    
    29   14   46 1    
    30   14   47 1    
    31   15   48 1    
    32   15   49 1    
    33   15   50 1    
    34   18   51 1    
    35   19   20 1    
    36   19   52 1    
    37   20   21 1    
    38   20   53 1    
    39   20   54 1    
    40   21   37 ar   
    41   21   22 ar   
    42   22   23 1    
    43   22   27 ar   
    44   23   24 1    
    45   23   25 1    
    46   23   26 1    
    47   27   28 ar   
    48   27   55 1    
    49   28   29 1    
    50   28   36 ar   
    51   29   30 1    
    52   30   31 1    
    53   30   34 2    
    54   30   35 2    
    55   31   33 1    
    56   31   32 1    
    57   31   56 1    
    58   32   33 1    
    59   32   57 1    
    60   32   58 1    
    61   33   59 1    
    62   33   60 1    
    63   36   37 ar   
    64   36   61 1    
    65   37   62 1    
@<TRIPOS>SUBSTRUCTURE
     1 UNK         1 GROUP             0       ****    0 ROOT    
