@<TRIPOS>MOLECULE
/home/yujie/leadopt/data/result/selection/sEH/lig_9a.sdf:1
54   57    1
SMALL
USER_CHARGES


@<TRIPOS>ATOM
      1 O1         -1.3288  -15.3330   25.7007 O.2       1 UNK         0.0000 
      2 C2         -1.0424  -14.8269   26.7856 C.2       1 UNK         0.0000 
      3 C3          0.0531  -13.7849   26.8657 C.ar      1 UNK         0.0000 
      4 C4          0.7584  -13.4500   25.7002 C.ar      1 UNK         0.0000 
      5 C5          1.7269  -12.4514   25.6639 C.ar      1 UNK         0.0000 
      6 C6          1.9929  -11.7824   26.8618 C.ar      1 UNK         0.0000 
      7 N7          2.8560  -10.7372   27.1449 N.pl3     1 UNK         0.0000 
      8 C8          3.7475  -10.0891   26.1919 C.3       1 UNK         0.0000 
      9 C9          5.0503  -10.8413   25.9649 C.ar      1 UNK         0.0000 
     10 C10         5.8886  -11.1419   27.0440 C.ar      1 UNK         0.0000 
     11 C11         7.0794  -11.8343   26.8385 C.ar      1 UNK         0.0000 
     12 F12         7.8714  -12.1332   27.8900 F         1 UNK         0.0000 
     13 C13         7.4496  -12.2196   25.5497 C.ar      1 UNK         0.0000 
     14 C14         6.6223  -11.9173   24.4670 C.ar      1 UNK         0.0000 
     15 C15         5.4247  -11.2310   24.6740 C.ar      1 UNK         0.0000 
     16 C16         2.8151  -10.4815   28.4961 C.ar      1 UNK         0.0000 
     17 C17         1.8703  -11.2777   29.0986 C.ar      1 UNK         0.0000 
     18 C18         1.3272  -12.1165   28.0777 C.ar      1 UNK         0.0000 
     19 C19         0.3490  -13.1153   28.0635 C.ar      1 UNK         0.0000 
     20 N20        -1.7492  -15.0999   27.8971 N.am      1 UNK         0.0000 
     21 C21        -2.9505  -15.9455   27.9555 C.3       1 UNK         0.0000 
     22 C22        -2.7321  -17.4590   28.0240 C.ar      1 UNK         0.0000 
     23 C23        -1.4778  -18.0059   28.3067 C.ar      1 UNK         0.0000 
     24 C24        -1.3288  -19.3840   28.4125 C.ar      1 UNK         0.0000 
     25 C25        -2.4078  -20.2377   28.2049 C.ar      1 UNK         0.0000 
     26 N26        -2.1484  -21.6112   28.3166 N.pl3     1 UNK         0.0000 
     27 S27        -3.3528  -22.9055   28.2712 S.o2      1 UNK         0.0000 
     28 C28        -3.7628  -23.0052   26.4392 C.3       1 UNK         0.0000 
     29 O29        -4.5291  -22.4579   29.0207 O.2       1 UNK         0.0000 
     30 O30        -2.6415  -24.1286   28.6510 O.2       1 UNK         0.0000 
     31 C31        -3.6601  -19.6968   27.8961 C.ar      1 UNK         0.0000 
     32 C32        -3.8192  -18.3136   27.8111 C.ar      1 UNK         0.0000 
     33 H33         0.5462  -13.9625   24.7711 H         1 UNK         0.0000 
     34 H34         2.2364  -12.2052   24.7435 H         1 UNK         0.0000 
     35 H35         3.2026   -9.9673   25.2541 H         1 UNK         0.0000 
     36 H36         3.9576   -9.0826   26.5425 H         1 UNK         0.0000 
     37 H37         5.6174  -10.8474   28.0468 H         1 UNK         0.0000 
     38 H38         8.3772  -12.7513   25.3949 H         1 UNK         0.0000 
     39 H39         6.9084  -12.2135   23.4686 H         1 UNK         0.0000 
     40 H40         4.7891  -11.0056   23.8282 H         1 UNK         0.0000 
     41 H41         3.4667   -9.7327   28.9231 H         1 UNK         0.0000 
     42 H42         1.6127  -11.2673   30.1474 H         1 UNK         0.0000 
     43 H43        -0.1696  -13.3330   28.9830 H         1 UNK         0.0000 
     44 H44        -1.3958  -14.7925   28.8062 H         1 UNK         0.0000 
     45 H45        -3.5943  -15.7340   27.0996 H         1 UNK         0.0000 
     46 H46        -3.5182  -15.6505   28.8411 H         1 UNK         0.0000 
     47 H47        -0.6215  -17.3715   28.4898 H         1 UNK         0.0000 
     48 H48        -0.3639  -19.7860   28.6892 H         1 UNK         0.0000 
     49 H49        -1.1939  -21.8991   28.4636 H         1 UNK         0.0000 
     50 H50        -4.5262  -23.7675   26.2981 H         1 UNK         0.0000 
     51 H51        -2.8596  -23.2753   25.8946 H         1 UNK         0.0000 
     52 H52        -4.1292  -22.0392   26.1000 H         1 UNK         0.0000 
     53 H53        -4.5185  -20.3282   27.7277 H         1 UNK         0.0000 
     54 H54        -4.7956  -17.9076   27.5872 H         1 UNK         0.0000 
@<TRIPOS>BOND
     1    1    2 2    
     2    2    3 1    
     3    2   20 am   BACKBONE|DICT|INTERRES
     4    3   19 ar   
     5    3    4 ar   
     6    4    5 ar   
     7    4   33 1    
     8    5    6 ar   
     9    5   34 1    
    10    6    7 ar   
    11    6   18 ar   
    12    7    8 1    
    13    7   16 ar   
    14    8    9 1    
    15    8   35 1    
    16    8   36 1    
    17    9   15 ar   
    18    9   10 ar   
    19   10   11 ar   
    20   10   37 1    
    21   11   12 1    
    22   11   13 ar   
    23   13   14 ar   
    24   13   38 1    
    25   14   15 ar   
    26   14   39 1    
    27   15   40 1    
    28   16   17 ar   
    29   16   41 1    
    30   17   18 ar   
    31   17   42 1    
    32   18   19 ar   
    33   19   43 1    
    34   20   21 1    
    35   20   44 1    
    36   21   22 1    
    37   21   45 1    
    38   21   46 1    
    39   22   32 ar   
    40   22   23 ar   
    41   23   24 ar   
    42   23   47 1    
    43   24   25 ar   
    44   24   48 1    
    45   25   26 1    
    46   25   31 ar   
    47   26   27 1    
    48   26   49 1    
    49   27   28 1    
    50   27   29 2    
    51   27   30 2    
    52   28   50 1    
    53   28   51 1    
    54   28   52 1    
    55   31   32 ar   
    56   31   53 1    
    57   32   54 1    
@<TRIPOS>SUBSTRUCTURE
     1 UNK         1 GROUP             0       ****    0 ROOT    
