@<TRIPOS>MOLECULE
/home/yujie/leadopt/data/result/selection/CDK9/lig_27.sdf:1
63   66    1
SMALL
USER_CHARGES


@<TRIPOS>ATOM
      1 C1        -49.6561  -44.2991    0.8446 C.3       1 UNK         0.0000 
      2 N2        -49.4812  -43.5806   -0.4216 N.am      1 UNK         0.0000 
      3 C3        -50.7489  -43.3143   -1.1077 C.3       1 UNK         0.0000 
      4 C4        -48.2566  -43.1948   -0.8715 C.2       1 UNK         0.0000 
      5 O5        -47.2302  -43.4941   -0.2558 O.2       1 UNK         0.0000 
      6 C6        -48.1754  -42.3758   -2.2008 C.3       1 UNK         0.0000 
      7 N7        -46.8523  -41.8166   -2.5561 N.3       1 UNK         0.0000 
      8 C8        -46.4022  -40.7336   -1.6645 C.3       1 UNK         0.0000 
      9 C9        -45.0844  -40.0779   -2.1340 C.3       1 UNK         0.0000 
     10 C10       -43.9898  -41.1397   -2.3377 C.3       1 UNK         0.0000 
     11 C11       -44.5064  -42.1751   -3.3619 C.3       1 UNK         0.0000 
     12 C12       -45.8305  -42.8186   -2.9046 C.3       1 UNK         0.0000 
     13 C13       -42.6071  -40.6004   -2.6626 C.ar      1 UNK         0.0000 
     14 C14       -42.0822  -39.3276   -2.8785 C.ar      1 UNK         0.0000 
     15 C15       -40.6572  -39.4574   -3.0817 C.ar      1 UNK         0.0000 
     16 C16       -39.5450  -38.6040   -3.3171 C.ar      1 UNK         0.0000 
     17 C17       -38.2940  -39.2246   -3.4570 C.ar      1 UNK         0.0000 
     18 C18       -38.1866  -40.6118   -3.4034 C.ar      1 UNK         0.0000 
     19 N19       -39.2223  -41.4579   -3.2001 N.ar      1 UNK         0.0000 
     20 C20       -40.3975  -40.8553   -3.0426 C.ar      1 UNK         0.0000 
     21 N21       -41.5745  -41.4935   -2.7740 N.pl3     1 UNK         0.0000 
     22 C22       -39.6446  -37.1300   -3.4351 C.ar      1 UNK         0.0000 
     23 C23       -38.7742  -36.3697   -4.3251 C.ar      1 UNK         0.0000 
     24 C24       -38.8812  -35.0254   -4.4028 C.ar      1 UNK         0.0000 
     25 C25       -39.8693  -34.2601   -3.6511 C.ar      1 UNK         0.0000 
     26 O26       -39.9479  -33.0467   -3.8567 O.2       1 UNK         0.0000 
     27 N27       -40.6501  -35.0031   -2.7798 N.pl3     1 UNK         0.0000 
     28 C28       -40.5110  -36.3803   -2.7186 C.ar      1 UNK         0.0000 
     29 C29       -41.6449  -34.2728   -1.9655 C.3       1 UNK         0.0000 
     30 C30       -43.0438  -34.9333   -1.8863 C.3       1 UNK         0.0000 
     31 S31       -44.4295  -33.8935   -2.4052 S.3       1 UNK         0.0000 
     32 C32       -44.0293  -33.6558   -4.1564 C.3       1 UNK         0.0000 
     33 H33       -41.7049  -42.4919   -2.6450 H         1 UNK         0.0000 
     34 H34       -50.1036  -45.2764    0.6634 H         1 UNK         0.0000 
     35 H35       -50.3213  -43.7438    1.5065 H         1 UNK         0.0000 
     36 H36       -48.7199  -44.4600    1.3815 H         1 UNK         0.0000 
     37 H37       -51.3509  -42.6153   -0.5244 H         1 UNK         0.0000 
     38 H38       -50.6356  -42.8997   -2.1088 H         1 UNK         0.0000 
     39 H39       -51.3206  -44.2382   -1.2111 H         1 UNK         0.0000 
     40 H40       -48.5159  -43.0070   -3.0226 H         1 UNK         0.0000 
     41 H41       -48.8782  -41.5435   -2.1497 H         1 UNK         0.0000 
     42 H42       -47.1828  -39.9736   -1.6085 H         1 UNK         0.0000 
     43 H43       -46.2873  -41.1250   -0.6563 H         1 UNK         0.0000 
     44 H44       -45.2766  -39.4991   -3.0388 H         1 UNK         0.0000 
     45 H45       -44.7875  -39.3861   -1.3441 H         1 UNK         0.0000 
     46 H46       -43.9105  -41.6679   -1.3836 H         1 UNK         0.0000 
     47 H47       -43.7967  -42.9994   -3.4505 H         1 UNK         0.0000 
     48 H48       -44.6486  -41.7449   -4.3536 H         1 UNK         0.0000 
     49 H49       -45.6386  -43.4894   -2.0674 H         1 UNK         0.0000 
     50 H50       -46.2230  -43.4480   -3.7043 H         1 UNK         0.0000 
     51 H51       -42.6657  -38.4197   -2.8627 H         1 UNK         0.0000 
     52 H52       -37.3990  -38.6398   -3.6121 H         1 UNK         0.0000 
     53 H53       -37.2293  -41.0845   -3.5294 H         1 UNK         0.0000 
     54 H54       -38.0312  -36.8761   -4.9240 H         1 UNK         0.0000 
     55 H55       -38.2215  -34.4776   -5.0560 H         1 UNK         0.0000 
     56 H56       -41.1604  -36.8190   -1.9747 H         1 UNK         0.0000 
     57 H57       -41.2415  -34.2055   -0.9545 H         1 UNK         0.0000 
     58 H58       -41.7535  -33.2311   -2.2758 H         1 UNK         0.0000 
     59 H59       -43.1095  -35.8468   -2.4772 H         1 UNK         0.0000 
     60 H60       -43.2388  -35.2264   -0.8537 H         1 UNK         0.0000 
     61 H61       -44.8177  -33.0948   -4.6571 H         1 UNK         0.0000 
     62 H62       -43.0993  -33.0963   -4.2565 H         1 UNK         0.0000 
     63 H63       -43.9238  -34.6188   -4.6566 H         1 UNK         0.0000 
@<TRIPOS>BOND
     1    1    2 1    
     2    1   34 1    
     3    1   35 1    
     4    1   36 1    
     5    2    3 1    
     6    2    4 am   BACKBONE|DICT|INTERRES
     7    3   37 1    
     8    3   38 1    
     9    3   39 1    
    10    4    5 2    
    11    4    6 1    
    12    6    7 1    
    13    6   40 1    
    14    6   41 1    
    15    7   12 1    
    16    7    8 1    
    17    8    9 1    
    18    8   42 1    
    19    8   43 1    
    20    9   10 1    
    21    9   44 1    
    22    9   45 1    
    23   10   11 1    
    24   10   13 1    
    25   10   46 1    
    26   11   12 1    
    27   11   47 1    
    28   11   48 1    
    29   12   49 1    
    30   12   50 1    
    31   13   21 ar   
    32   13   14 ar   
    33   14   15 ar   
    34   14   51 1    
    35   15   20 ar   
    36   15   16 ar   
    37   16   17 ar   
    38   16   22 1    
    39   17   18 ar   
    40   17   52 1    
    41   18   19 ar   
    42   18   53 1    
    43   19   20 ar   
    44   20   21 ar   
    45   21   33 1    
    46   22   28 ar   
    47   22   23 ar   
    48   23   24 ar   
    49   23   54 1    
    50   24   25 ar   
    51   24   55 1    
    52   25   26 2    
    53   25   27 ar   
    54   27   28 ar   
    55   27   29 1    
    56   28   56 1    
    57   29   30 1    
    58   29   57 1    
    59   29   58 1    
    60   30   31 1    
    61   30   59 1    
    62   30   60 1    
    63   31   32 1    
    64   32   61 1    
    65   32   62 1    
    66   32   63 1    
@<TRIPOS>SUBSTRUCTURE
     1 UNK         1 GROUP             0       ****    0 ROOT    
