@<TRIPOS>MOLECULE
/home/yujie/leadopt/data/result/selection/CDK9/lig_16.sdf:1
52   55    1
SMALL
USER_CHARGES


@<TRIPOS>ATOM
      1 C1        -41.2055  -36.2811   -0.1273 C.3       1 UNK         0.0000 
      2 O2        -40.6283  -36.9697   -1.2337 O.3       1 UNK         0.0000 
      3 C3        -40.2112  -36.2590   -2.3468 C.ar      1 UNK         0.0000 
      4 C4        -40.3646  -34.8650   -2.4707 C.ar      1 UNK         0.0000 
      5 C5        -39.8807  -34.1912   -3.5886 C.ar      1 UNK         0.0000 
      6 C6        -39.2417  -34.8965   -4.5990 C.ar      1 UNK         0.0000 
      7 C7        -39.0950  -36.2752   -4.4991 C.ar      1 UNK         0.0000 
      8 C8        -39.5756  -36.9727   -3.3837 C.ar      1 UNK         0.0000 
      9 C9        -39.3419  -38.4417   -3.3153 C.ar      1 UNK         0.0000 
     10 C10       -38.0412  -38.9464   -3.4541 C.ar      1 UNK         0.0000 
     11 C11       -37.8095  -40.3177   -3.3794 C.ar      1 UNK         0.0000 
     12 N12       -38.7748  -41.2498   -3.1806 N.ar      1 UNK         0.0000 
     13 C13       -40.0094  -40.7612   -3.0569 C.ar      1 UNK         0.0000 
     14 C14       -40.3773  -39.3866   -3.1067 C.ar      1 UNK         0.0000 
     15 C15       -41.8009  -39.3572   -2.9082 C.ar      1 UNK         0.0000 
     16 C16       -42.2285  -40.6576   -2.6564 C.ar      1 UNK         0.0000 
     17 N17       -41.1456  -41.4927   -2.8010 N.pl3     1 UNK         0.0000 
     18 C18       -43.5621  -41.2437   -2.2266 C.3       1 UNK         0.0000 
     19 C19       -44.5354  -40.2034   -1.6319 C.3       1 UNK         0.0000 
     20 C20       -45.7865  -40.8917   -1.0569 C.3       1 UNK         0.0000 
     21 N21       -46.4642  -41.7194   -2.1761 N.4       1 UNK         0.0000 
     22 C22       -45.5130  -42.7722   -2.7997 C.3       1 UNK         0.0000 
     23 C23       -44.2612  -42.0584   -3.3371 C.3       1 UNK         0.0000 
     24 C24       -47.7986  -42.3501   -1.6921 C.3       1 UNK         0.0000 
     25 C25       -47.6241  -43.4268   -0.5915 C.3       1 UNK         0.0000 
     26 O26       -48.3941  -43.0937    0.5428 O.3       1 UNK         0.0000 
     27 F27       -40.0215  -32.8521   -3.7001 F         1 UNK         0.0000 
     28 H28       -41.2271  -42.4939   -2.6588 H         1 UNK         0.0000 
     29 H29       -41.4489  -37.0001    0.6551 H         1 UNK         0.0000 
     30 H30       -40.5133  -35.5546    0.3007 H         1 UNK         0.0000 
     31 H31       -42.1310  -35.7757   -0.4084 H         1 UNK         0.0000 
     32 H32       -40.8426  -34.2780   -1.7028 H         1 UNK         0.0000 
     33 H33       -38.8549  -34.3725   -5.4558 H         1 UNK         0.0000 
     34 H34       -38.5935  -36.8065   -5.2955 H         1 UNK         0.0000 
     35 H35       -37.2088  -38.2736   -3.6076 H         1 UNK         0.0000 
     36 H36       -36.8031  -40.6967   -3.4735 H         1 UNK         0.0000 
     37 H37       -42.4310  -38.4808   -2.8725 H         1 UNK         0.0000 
     38 H38       -43.3499  -41.9470   -1.4157 H         1 UNK         0.0000 
     39 H39       -44.8383  -39.4714   -2.3815 H         1 UNK         0.0000 
     40 H40       -44.0553  -39.6767   -0.8040 H         1 UNK         0.0000 
     41 H41       -46.5162  -40.1779   -0.6653 H         1 UNK         0.0000 
     42 H42       -45.5210  -41.5799   -0.2541 H         1 UNK         0.0000 
     43 H43       -45.2482  -43.4930   -2.0262 H         1 UNK         0.0000 
     44 H44       -46.0634  -43.2860   -3.5899 H         1 UNK         0.0000 
     45 H45       -43.5905  -42.8397   -3.6950 H         1 UNK         0.0000 
     46 H46       -44.5458  -41.4257   -4.1777 H         1 UNK         0.0000 
     47 H47       -48.2571  -42.7658   -2.5909 H         1 UNK         0.0000 
     48 H48       -48.4161  -41.5064   -1.3729 H         1 UNK         0.0000 
     49 H49       -46.5913  -43.5454   -0.2681 H         1 UNK         0.0000 
     50 H50       -47.9471  -44.4022   -0.9602 H         1 UNK         0.0000 
     51 H51       -47.9917  -42.3025    0.9501 H         1 UNK         0.0000 
     52 H52       -46.6870  -41.0618   -2.9116 H         1 UNK         0.0000 
@<TRIPOS>BOND
     1    1    2 1    
     2    1   29 1    
     3    1   30 1    
     4    1   31 1    
     5    2    3 1    
     6    3    8 ar   
     7    3    4 ar   
     8    4    5 ar   
     9    4   32 1    
    10    5    6 ar   
    11    5   27 1    
    12    6    7 ar   
    13    6   33 1    
    14    7    8 ar   
    15    7   34 1    
    16    8    9 1    
    17    9   14 ar   
    18    9   10 ar   
    19   10   11 ar   
    20   10   35 1    
    21   11   12 ar   
    22   11   36 1    
    23   12   13 ar   
    24   13   17 ar   
    25   13   14 ar   
    26   14   15 ar   
    27   15   16 ar   
    28   15   37 1    
    29   16   17 ar   
    30   16   18 1    
    31   17   28 1    
    32   18   23 1    
    33   18   19 1    
    34   18   38 1    
    35   19   20 1    
    36   19   39 1    
    37   19   40 1    
    38   20   21 1    
    39   20   41 1    
    40   20   42 1    
    41   21   22 1    
    42   21   24 1    
    43   21   52 1    
    44   22   23 1    
    45   22   43 1    
    46   22   44 1    
    47   23   45 1    
    48   23   46 1    
    49   24   25 1    
    50   24   47 1    
    51   24   48 1    
    52   25   26 1    
    53   25   49 1    
    54   25   50 1    
    55   26   51 1    
@<TRIPOS>SUBSTRUCTURE
     1 UNK         1 GROUP             0       ****    0 ROOT    
