@<TRIPOS>MOLECULE
/home/yujie/leadopt/data/result/selection/CDK9/lig_37.sdf:1
54   57    1
SMALL
USER_CHARGES


@<TRIPOS>ATOM
      1 C1        -43.5213  -34.0165   -3.8303 C.3       1 UNK         0.0000 
      2 C2        -42.5720  -34.5712   -2.7481 C.3       1 UNK         0.0000 
      3 C3        -42.4590  -33.6178   -1.5490 C.3       1 UNK         0.0000 
      4 N4        -41.2605  -35.0553   -3.2561 N.pl3     1 UNK         0.0000 
      5 C5        -40.9282  -36.3901   -3.1401 C.ar      1 UNK         0.0000 
      6 C6        -39.8203  -37.0044   -3.6160 C.ar      1 UNK         0.0000 
      7 C7        -38.8837  -36.1108   -4.2911 C.ar      1 UNK         0.0000 
      8 C8        -39.1527  -34.7896   -4.3890 C.ar      1 UNK         0.0000 
      9 C9        -40.3676  -34.1776   -3.8561 C.ar      1 UNK         0.0000 
     10 O10       -40.5211  -32.9634   -4.0043 O.2       1 UNK         0.0000 
     11 C11       -39.5585  -38.4581   -3.4330 C.ar      1 UNK         0.0000 
     12 C12       -38.2448  -38.9560   -3.4563 C.ar      1 UNK         0.0000 
     13 C13       -38.0021  -40.3175   -3.2754 C.ar      1 UNK         0.0000 
     14 N14       -38.9639  -41.2484   -3.0624 N.ar      1 UNK         0.0000 
     15 C15       -40.2070  -40.7678   -3.0534 C.ar      1 UNK         0.0000 
     16 C16       -40.5926  -39.4104   -3.2206 C.ar      1 UNK         0.0000 
     17 C17       -42.0330  -39.4105   -3.1242 C.ar      1 UNK         0.0000 
     18 C18       -42.4572  -40.6911   -2.8091 C.ar      1 UNK         0.0000 
     19 N19       -41.3451  -41.4935   -2.8013 N.pl3     1 UNK         0.0000 
     20 C20       -43.8234  -41.2705   -2.4786 C.3       1 UNK         0.0000 
     21 C21       -44.9865  -40.2414   -2.4226 C.3       1 UNK         0.0000 
     22 C22       -46.3585  -40.8920   -2.1103 C.3       1 UNK         0.0000 
     23 N23       -46.5573  -41.9970   -3.0638 N.am      1 UNK         0.0000 
     24 C24       -45.6017  -43.0982   -2.8750 C.3       1 UNK         0.0000 
     25 C25       -44.2043  -42.5592   -3.2599 C.3       1 UNK         0.0000 
     26 C26       -47.1978  -41.8486   -4.2503 C.2       1 UNK         0.0000 
     27 O27       -47.1505  -42.6913   -5.1492 O.2       1 UNK         0.0000 
     28 C28       -48.1639  -40.6727   -4.4265 C.3       1 UNK         0.0000 
     29 H29       -41.4071  -42.4864   -2.6018 H         1 UNK         0.0000 
     30 H30       -44.4873  -33.7537   -3.3980 H         1 UNK         0.0000 
     31 H31       -43.1383  -33.0927   -4.2614 H         1 UNK         0.0000 
     32 H32       -43.7055  -34.7460   -4.6209 H         1 UNK         0.0000 
     33 H33       -43.0962  -35.4428   -2.3530 H         1 UNK         0.0000 
     34 H34       -43.4420  -33.3392   -1.1700 H         1 UNK         0.0000 
     35 H35       -41.9027  -34.0532   -0.7183 H         1 UNK         0.0000 
     36 H36       -41.9827  -32.6929   -1.8565 H         1 UNK         0.0000 
     37 H37       -41.6408  -36.9067   -2.5194 H         1 UNK         0.0000 
     38 H38       -37.9723  -36.4914   -4.7273 H         1 UNK         0.0000 
     39 H39       -38.4509  -34.1452   -4.8943 H         1 UNK         0.0000 
     40 H40       -37.4005  -38.2974   -3.5977 H         1 UNK         0.0000 
     41 H41       -36.9873  -40.6924   -3.2898 H         1 UNK         0.0000 
     42 H42       -42.7096  -38.5781   -3.2324 H         1 UNK         0.0000 
     43 H43       -43.7979  -41.6360   -1.4491 H         1 UNK         0.0000 
     44 H44       -45.0844  -39.7309   -3.3820 H         1 UNK         0.0000 
     45 H45       -44.8034  -39.5032   -1.6405 H         1 UNK         0.0000 
     46 H46       -47.2009  -40.2006   -2.0599 H         1 UNK         0.0000 
     47 H47       -46.3400  -41.3359   -1.1120 H         1 UNK         0.0000 
     48 H48       -45.6273  -43.3749   -1.8196 H         1 UNK         0.0000 
     49 H49       -45.9046  -44.0140   -3.3869 H         1 UNK         0.0000 
     50 H50       -43.5021  -43.3659   -3.0554 H         1 UNK         0.0000 
     51 H51       -44.2121  -42.3631   -4.3321 H         1 UNK         0.0000 
     52 H52       -47.6291  -39.7226   -4.4092 H         1 UNK         0.0000 
     53 H53       -48.9136  -40.6711   -3.6347 H         1 UNK         0.0000 
     54 H54       -48.6830  -40.7469   -5.3818 H         1 UNK         0.0000 
@<TRIPOS>BOND
     1    1    2 1    
     2    1   30 1    
     3    1   31 1    
     4    1   32 1    
     5    2    3 1    
     6    2    4 1    
     7    2   33 1    
     8    3   34 1    
     9    3   35 1    
    10    3   36 1    
    11    4    9 ar   
    12    4    5 ar   
    13    5    6 ar   
    14    5   37 1    
    15    6    7 ar   
    16    6   11 1    
    17    7    8 ar   
    18    7   38 1    
    19    8    9 ar   
    20    8   39 1    
    21    9   10 2    
    22   11   16 ar   
    23   11   12 ar   
    24   12   13 ar   
    25   12   40 1    
    26   13   14 ar   
    27   13   41 1    
    28   14   15 ar   
    29   15   19 ar   
    30   15   16 ar   
    31   16   17 ar   
    32   17   18 ar   
    33   17   42 1    
    34   18   19 ar   
    35   18   20 1    
    36   19   29 1    
    37   20   25 1    
    38   20   21 1    
    39   20   43 1    
    40   21   22 1    
    41   21   44 1    
    42   21   45 1    
    43   22   23 1    
    44   22   46 1    
    45   22   47 1    
    46   23   24 1    
    47   23   26 am   BACKBONE|DICT|INTERRES
    48   24   25 1    
    49   24   48 1    
    50   24   49 1    
    51   25   50 1    
    52   25   51 1    
    53   26   27 2    
    54   26   28 1    
    55   28   52 1    
    56   28   53 1    
    57   28   54 1    
@<TRIPOS>SUBSTRUCTURE
     1 UNK         1 GROUP             0       ****    0 ROOT    
