/home/yujie/leadopt/data/result/selection/CDK9/lig_30.sdf:1
                    3D
 Schrodinger Suite 2020-3.
 74 78  0  0  1  0            999 V2000
  -48.7301  -47.1349   -2.5254 C   0  0  0  0  0  0
  -48.3580  -45.9335   -1.7671 N   0  0  0  0  0  0
  -48.4905  -46.1099   -0.3190 C   0  0  0  0  0  0
  -47.9413  -44.8000   -2.3913 C   0  0  0  0  0  0
  -47.8101  -44.7497   -3.6149 O   0  0  0  0  0  0
  -47.6455  -43.5134   -1.5806 C   0  0  0  0  0  0
  -46.2349  -42.9565   -1.9348 N   0  3  2  0  0  0
  -45.6881  -42.1009   -0.7669 C   0  0  0  0  0  0
  -44.2284  -41.7207   -1.0727 C   0  0  0  0  0  0
  -44.0831  -40.9605   -2.4108 C   0  0  2  0  0  0
  -44.7760  -41.7197   -3.5662 C   0  0  0  0  0  0
  -46.2267  -42.1090   -3.2320 C   0  0  0  0  0  0
  -42.6514  -40.5531   -2.7149 C   0  0  0  0  0  0
  -42.0823  -39.3063   -2.9485 C   0  0  0  0  0  0
  -40.6640  -39.4786   -3.1187 C   0  0  0  0  0  0
  -39.5386  -38.6509   -3.3661 C   0  0  0  0  0  0
  -38.2928  -39.2880   -3.4565 C   0  0  0  0  0  0
  -38.1983  -40.6707   -3.3291 C   0  0  0  0  0  0
  -39.2556  -41.4936   -3.1187 N   0  0  0  0  0  0
  -40.4356  -40.8798   -3.0242 C   0  0  0  0  0  0
  -41.6459  -41.4913   -2.7891 N   0  0  0  0  0  0
  -39.6155  -37.1822   -3.5428 C   0  0  0  0  0  0
  -38.7790  -36.4978   -4.5217 C   0  0  0  0  0  0
  -38.8438  -35.1565   -4.6558 C   0  0  0  0  0  0
  -39.7050  -34.3148   -3.8341 C   0  0  0  0  0  0
  -39.6582  -33.0931   -3.9904 O   0  0  0  0  0  0
  -40.4930  -34.9941   -2.9191 N   0  0  0  0  0  0
  -40.4156  -36.3721   -2.8113 C   0  0  0  0  0  0
  -41.3218  -34.1821   -2.0095 C   0  0  0  0  0  0
  -42.7924  -34.0148   -2.4539 C   0  0  0  0  0  0
  -43.6884  -35.2654   -2.2766 C   0  0  0  0  0  0
  -43.8544  -35.7013   -0.7986 C   0  0  0  0  0  0
  -44.8357  -36.8840   -0.6507 C   0  0  0  0  0  0
  -46.0822  -36.5601   -1.2660 O   0  0  0  0  0  0
  -45.9869  -36.2971   -2.6627 C   0  0  0  0  0  0
  -45.0877  -35.0660   -2.8972 C   0  0  0  0  0  0
  -41.8031  -42.4840   -2.6484 H   0  0  0  0  0  0
  -48.7189  -46.9823   -3.6076 H   0  0  0  0  0  0
  -49.7326  -47.4681   -2.2497 H   0  0  0  0  0  0
  -48.0292  -47.9447   -2.3095 H   0  0  0  0  0  0
  -47.7658  -45.5340    0.2554 H   0  0  0  0  0  0
  -49.4967  -45.8433    0.0066 H   0  0  0  0  0  0
  -48.3211  -47.1537   -0.0487 H   0  0  0  0  0  0
  -48.3605  -42.7223   -1.8121 H   0  0  0  0  0  0
  -47.6711  -43.6565   -0.5038 H   0  0  0  0  0  0
  -46.3356  -41.2256   -0.6599 H   0  0  0  0  0  0
  -45.7658  -42.6927    0.1426 H   0  0  0  0  0  0
  -43.8754  -41.0921   -0.2569 H   0  0  0  0  0  0
  -43.6462  -42.6442   -1.0865 H   0  0  0  0  0  0
  -44.6843  -40.0582   -2.2770 H   0  0  0  0  0  0
  -44.2339  -42.6381   -3.7971 H   0  0  0  0  0  0
  -44.8325  -41.0938   -4.4547 H   0  0  0  0  0  0
  -46.6637  -42.6887   -4.0434 H   0  0  0  0  0  0
  -46.8560  -41.2349   -3.0528 H   0  0  0  0  0  0
  -42.6351  -38.3797   -2.9685 H   0  0  0  0  0  0
  -37.3920  -38.7130   -3.6222 H   0  0  0  0  0  0
  -37.2323  -41.1488   -3.3973 H   0  0  0  0  0  0
  -38.1174  -37.0637   -5.1628 H   0  0  0  0  0  0
  -38.2225  -34.6667   -5.3883 H   0  0  0  0  0  0
  -41.0653  -36.7452   -2.0323 H   0  0  0  0  0  0
  -41.2860  -34.6305   -1.0179 H   0  0  0  0  0  0
  -40.8914  -33.1886   -1.8672 H   0  0  0  0  0  0
  -43.2247  -33.2065   -1.8631 H   0  0  0  0  0  0
  -42.8202  -33.6641   -3.4869 H   0  0  0  0  0  0
  -43.2418  -36.1047   -2.8121 H   0  0  0  0  0  0
  -42.8957  -35.9419   -0.3414 H   0  0  0  0  0  0
  -44.2379  -34.8616   -0.2164 H   0  0  0  0  0  0
  -44.4201  -37.7951   -1.0842 H   0  0  0  0  0  0
  -45.0171  -37.0984    0.4034 H   0  0  0  0  0  0
  -45.5982  -37.1732   -3.1866 H   0  0  0  0  0  0
  -46.9870  -36.1138   -3.0562 H   0  0  0  0  0  0
  -45.5611  -34.1907   -2.4503 H   0  0  0  0  0  0
  -45.0056  -34.8387   -3.9614 H   0  0  0  0  0  0
  -45.6180  -43.7557   -2.0457 H   0  0  0  0  0  0
  1  2  1  0  0  0
  1 38  1  0  0  0
  1 39  1  0  0  0
  1 40  1  0  0  0
  2  3  1  0  0  0
  2  4  1  0  0  0
  3 41  1  0  0  0
  3 42  1  0  0  0
  3 43  1  0  0  0
  4  5  2  0  0  0
  4  6  1  0  0  0
  6  7  1  0  0  0
  6 44  1  0  0  0
  6 45  1  0  0  0
  7 12  1  0  0  0
  7  8  1  0  0  0
  7 74  1  0  0  0
  8  9  1  0  0  0
  8 46  1  0  0  0
  8 47  1  0  0  0
  9 10  1  0  0  0
  9 48  1  0  0  0
  9 49  1  0  0  0
 10 11  1  0  0  0
 10 13  1  0  0  0
 10 50  1  0  0  0
 11 12  1  0  0  0
 11 51  1  0  0  0
 11 52  1  0  0  0
 12 53  1  0  0  0
 12 54  1  0  0  0
 13 21  1  0  0  0
 13 14  2  0  0  0
 14 15  1  0  0  0
 14 55  1  0  0  0
 15 20  2  0  0  0
 15 16  1  0  0  0
 16 17  2  0  0  0
 16 22  1  0  0  0
 17 18  1  0  0  0
 17 56  1  0  0  0
 18 19  2  0  0  0
 18 57  1  0  0  0
 19 20  1  0  0  0
 20 21  1  0  0  0
 21 37  1  0  0  0
 22 28  2  0  0  0
 22 23  1  0  0  0
 23 24  2  0  0  0
 23 58  1  0  0  0
 24 25  1  0  0  0
 24 59  1  0  0  0
 25 26  2  0  0  0
 25 27  1  0  0  0
 27 28  1  0  0  0
 27 29  1  0  0  0
 28 60  1  0  0  0
 29 30  1  0  0  0
 29 61  1  0  0  0
 29 62  1  0  0  0
 30 31  1  0  0  0
 30 63  1  0  0  0
 30 64  1  0  0  0
 31 36  1  0  0  0
 31 32  1  0  0  0
 31 65  1  0  0  0
 32 33  1  0  0  0
 32 66  1  0  0  0
 32 67  1  0  0  0
 33 34  1  0  0  0
 33 68  1  0  0  0
 33 69  1  0  0  0
 34 35  1  0  0  0
 35 36  1  0  0  0
 35 70  1  0  0  0
 35 71  1  0  0  0
 36 72  1  0  0  0
 36 73  1  0  0  0
M  CHG  1   7   1
M  END
> <s_m_source_file>
/home/yujie/leadopt/data/result/selection/CDK9/lig_30.sdf

> <i_m_source_file_index>
1

> <i_lp_mmshare_version>
51139

> <i_f3d_flags>
0

> <s_epik_input>
W0NIM11OKFtDSDNdKUMoPU8pW0NIMl1OMVtDSDJdW0NIMl1bQ0hdKFtDSDJdW0NIMl0xKWMoW2NIXTIpW25IXWMoYzIzKW5bY0hdW2NIXWMzLWM0W2NIXVtjSF1jKD1PKW4oW2NIXTQpW0NIMl1bQ0gyXVtDSF01W0NIMl1bQ0gyXU9bQ0gyXVtDSDJdNQ==

> <s_epik_cmdline>
J2VwaWtfcHl0aG9uJywgJy1waHQnLCAnMi4wJywgJy1waCcsICc3LjAnLCAnLXRuJywgJzgnLCAnLW1hJywgJzIwMCcsICctaW1hZScsICc8aW5maWxlLm1hZT4nLCAnLW9tYWUnLCAnPG91dGZpbGUubWFlPic=

> <r_lp_tautomer_probability>
0.999998

> <r_epik_Ionization_Penalty>
  0.0792

> <r_epik_Ionization_Penalty_Charging>
  0.0781

> <r_epik_Ionization_Penalty_Neutral>
  0.0011

> <r_epik_State_Penalty>
  0.0690

> <r_epik_Charging_Adjusted_Penalty>
0.147046

> <i_epik_Tot_Q>
1

> <i_epik_Tot_abs_Q>
1

> <s_lp_Force_Field>
OPLS3e

> <r_lp_Energy>
63.572

> <b_lp_Chiralities_Consistent>
1

> <s_lp_Variant>
/home/yujie/leadopt/data/result/selection/CDK9/lig_30.sdf:1-1

> <s_i_glide_gridfile>
glide-grid_CDK9

> <i_i_glide_lignum>
1

> <i_i_glide_rotatable_bonds>
8

> <r_i_docking_score>
-9.28109469520992

> <r_i_glide_ligand_efficiency>
-0.257808185978053

> <r_i_glide_ligand_efficiency_sa>
-0.851263873252188

> <r_i_glide_ligand_efficiency_ln>
-2.02488411629344

> <r_i_glide_gscore>
-9.35007689520993

> <r_i_glide_lipo>
-3.03938120492676

> <r_i_glide_hbond>
-0.76

> <r_i_glide_metal>
-0

> <r_i_glide_rewards>
-1.67537549568606

> <r_i_glide_evdw>
-51.2727584838867

> <r_i_glide_ecoul>
-10.876651763916

> <r_i_glide_erotb>
0.411199710858802

> <r_i_glide_esite>
-0.0913842166741722

> <r_i_glide_emodel>
-98.1098067559413

> <r_i_glide_energy>
-62.1494102478027

> <r_i_glide_einternal>
7.45319652557373

> <i_i_glide_confnum>
83

> <i_i_glide_posenum>
300

> <r_i_glide_eff_state_penalty>
0.0689822

$$$$
