/home/yujie/leadopt/data/result/selection/CDK9/lig_25.sdf:1
                    3D
 Schrodinger Suite 2020-3.
 66 69  0  0  1  0            999 V2000
  -43.7234  -35.5413   -2.7337 C   0  0  0  0  0  0
  -43.0918  -34.1977   -2.3172 C   0  0  0  0  0  0
  -43.3324  -33.1084   -3.3716 C   0  0  0  0  0  0
  -41.6017  -34.3032   -1.8962 C   0  0  0  0  0  0
  -40.6993  -35.0214   -2.8221 N   0  0  0  0  0  0
  -40.5517  -36.3954   -2.7528 C   0  0  0  0  0  0
  -39.6887  -37.1479   -3.4733 C   0  0  0  0  0  0
  -38.8369  -36.3907   -4.3853 C   0  0  0  0  0  0
  -38.9644  -35.0485   -4.4819 C   0  0  0  0  0  0
  -39.9239  -34.2775   -3.6962 C   0  0  0  0  0  0
  -39.9682  -33.0558   -3.8560 O   0  0  0  0  0  0
  -39.5787  -38.6208   -3.3320 C   0  0  0  0  0  0
  -38.3234  -39.2384   -3.4571 C   0  0  0  0  0  0
  -38.2001  -40.6224   -3.3400 C   0  0  0  0  0  0
  -39.2333  -41.4655   -3.0952 N   0  0  0  0  0  0
  -40.4192  -40.8649   -2.9758 C   0  0  0  0  0  0
  -40.6869  -39.4734   -3.0765 C   0  0  0  0  0  0
  -42.1161  -39.3443   -2.8995 C   0  0  0  0  0  0
  -42.6518  -40.6094   -2.6672 C   0  0  0  0  0  0
  -41.6044  -41.4936   -2.7051 N   0  0  0  0  0  0
  -44.0761  -41.1060   -2.4314 C   0  0  1  0  0  0
  -44.5351  -42.1262   -3.4986 C   0  0  0  0  0  0
  -46.0208  -42.4908   -3.3252 C   0  0  0  0  0  0
  -46.2572  -43.0932   -1.9156 N   0  3  1  0  0  0
  -45.7763  -42.1127   -0.8106 C   0  0  0  0  0  0
  -44.2896  -41.7499   -1.0404 C   0  0  0  0  0  0
  -47.7717  -43.4255   -1.7584 C   0  0  0  0  0  0
  -47.9976  -44.5596   -0.7362 C   0  0  0  0  0  0
  -47.9897  -44.2649    0.4596 O   0  0  0  0  0  0
  -48.2332  -45.8262   -1.1682 N   0  0  0  0  0  0
  -48.6829  -46.8861   -0.2626 C   0  0  0  0  0  0
  -48.0939  -46.2820   -2.5538 C   0  0  0  0  0  0
  -41.7289  -42.4897   -2.5555 H   0  0  0  0  0  0
  -43.2817  -35.9273   -3.6535 H   0  0  0  0  0  0
  -44.7959  -35.4376   -2.9070 H   0  0  0  0  0  0
  -43.5977  -36.2940   -1.9547 H   0  0  0  0  0  0
  -43.6300  -33.8635   -1.4284 H   0  0  0  0  0  0
  -42.7249  -33.2670   -4.2566 H   0  0  0  0  0  0
  -44.3762  -33.0922   -3.6860 H   0  0  0  0  0  0
  -43.0825  -32.1204   -2.9828 H   0  0  0  0  0  0
  -41.2258  -33.2991   -1.6888 H   0  0  0  0  0  0
  -41.5587  -34.8169   -0.9344 H   0  0  0  0  0  0
  -41.2203  -36.8254   -2.0205 H   0  0  0  0  0  0
  -38.1064  -36.8982   -5.0001 H   0  0  0  0  0  0
  -38.3277  -34.5037   -5.1604 H   0  0  0  0  0  0
  -37.4348  -38.6502   -3.6366 H   0  0  0  0  0  0
  -37.2294  -41.0886   -3.4352 H   0  0  0  0  0  0
  -42.6996  -38.4368   -2.9382 H   0  0  0  0  0  0
  -44.7387  -40.2401   -2.4960 H   0  0  0  0  0  0
  -44.4287  -41.7025   -4.4958 H   0  0  0  0  0  0
  -43.9387  -43.0396   -3.4497 H   0  0  0  0  0  0
  -46.6723  -41.6190   -3.4206 H   0  0  0  0  0  0
  -46.3238  -43.2479   -4.0510 H   0  0  0  0  0  0
  -46.4211  -41.2314   -0.8367 H   0  0  0  0  0  0
  -45.9326  -42.6139    0.1432 H   0  0  0  0  0  0
  -43.6850  -42.6520   -0.9284 H   0  0  0  0  0  0
  -44.0011  -41.0493   -0.2570 H   0  0  0  0  0  0
  -48.2805  -42.5088   -1.4559 H   0  0  0  0  0  0
  -48.1608  -43.6871   -2.7414 H   0  0  0  0  0  0
  -48.8190  -46.5455    0.7651 H   0  0  0  0  0  0
  -49.6380  -47.2895   -0.6005 H   0  0  0  0  0  0
  -47.9603  -47.7031   -0.2570 H   0  0  0  0  0  0
  -47.4597  -45.6386   -3.1622 H   0  0  0  0  0  0
  -47.6299  -47.2684   -2.5786 H   0  0  0  0  0  0
  -49.0704  -46.3694   -3.0304 H   0  0  0  0  0  0
  -45.7198  -43.9572   -1.8511 H   0  0  0  0  0  0
  1  2  1  0  0  0
  1 34  1  0  0  0
  1 35  1  0  0  0
  1 36  1  0  0  0
  2  3  1  0  0  0
  2  4  1  0  0  0
  2 37  1  0  0  0
  3 38  1  0  0  0
  3 39  1  0  0  0
  3 40  1  0  0  0
  4  5  1  0  0  0
  4 41  1  0  0  0
  4 42  1  0  0  0
  5 10  1  0  0  0
  5  6  1  0  0  0
  6  7  2  0  0  0
  6 43  1  0  0  0
  7  8  1  0  0  0
  7 12  1  0  0  0
  8  9  2  0  0  0
  8 44  1  0  0  0
  9 10  1  0  0  0
  9 45  1  0  0  0
 10 11  2  0  0  0
 12 17  1  0  0  0
 12 13  2  0  0  0
 13 14  1  0  0  0
 13 46  1  0  0  0
 14 15  2  0  0  0
 14 47  1  0  0  0
 15 16  1  0  0  0
 16 20  1  0  0  0
 16 17  2  0  0  0
 17 18  1  0  0  0
 18 19  2  0  0  0
 18 48  1  0  0  0
 19 20  1  0  0  0
 19 21  1  0  0  0
 20 33  1  0  0  0
 21 26  1  0  0  0
 21 22  1  0  0  0
 21 49  1  0  0  0
 22 23  1  0  0  0
 22 50  1  0  0  0
 22 51  1  0  0  0
 23 24  1  0  0  0
 23 52  1  0  0  0
 23 53  1  0  0  0
 24 25  1  0  0  0
 24 27  1  0  0  0
 24 66  1  0  0  0
 25 26  1  0  0  0
 25 54  1  0  0  0
 25 55  1  0  0  0
 26 56  1  0  0  0
 26 57  1  0  0  0
 27 28  1  0  0  0
 27 58  1  0  0  0
 27 59  1  0  0  0
 28 29  2  0  0  0
 28 30  1  0  0  0
 30 31  1  0  0  0
 30 32  1  0  0  0
 31 60  1  0  0  0
 31 61  1  0  0  0
 31 62  1  0  0  0
 32 63  1  0  0  0
 32 64  1  0  0  0
 32 65  1  0  0  0
M  CHG  1  24   1
M  END
> <s_m_source_file>
/home/yujie/leadopt/data/result/selection/CDK9/lig_25.sdf

> <i_m_source_file_index>
1

> <i_lp_mmshare_version>
51139

> <i_f3d_flags>
0

> <s_epik_input>
W0NIM11bQ0hdKFtDSDNdKVtDSDJdbjFbY0hdYyhbY0hdW2NIXWMxPU8pLWMoW2NIXVtjSF1uMiljKGMyMylbY0hdYyhbbkhdMylbQ0hdNFtDSDJdW0NIMl1OKFtDSDJdW0NIMl00KVtDSDJdQyg9TylOKFtDSDNdKVtDSDNd

> <s_epik_cmdline>
J2VwaWtfcHl0aG9uJywgJy1waHQnLCAnMi4wJywgJy1waCcsICc3LjAnLCAnLXRuJywgJzgnLCAnLW1hJywgJzIwMCcsICctaW1hZScsICc8aW5maWxlLm1hZT4nLCAnLW9tYWUnLCAnPG91dGZpbGUubWFlPic=

> <r_lp_tautomer_probability>
0.999998

> <r_epik_Ionization_Penalty>
  0.0792

> <r_epik_Ionization_Penalty_Charging>
  0.0781

> <r_epik_Ionization_Penalty_Neutral>
  0.0011

> <r_epik_State_Penalty>
  0.0690

> <r_epik_Charging_Adjusted_Penalty>
0.147046

> <i_epik_Tot_Q>
1

> <i_epik_Tot_abs_Q>
1

> <s_lp_Force_Field>
OPLS3e

> <r_lp_Energy>
58.5913

> <b_lp_Chiralities_Consistent>
1

> <s_lp_Variant>
/home/yujie/leadopt/data/result/selection/CDK9/lig_25.sdf:1-1

> <s_i_glide_gridfile>
glide-grid_CDK9

> <i_i_glide_lignum>
1

> <i_i_glide_rotatable_bonds>
7

> <r_i_docking_score>
-9.42894890907158

> <r_i_glide_ligand_efficiency>
-0.294654653408487

> <r_i_glide_ligand_efficiency_sa>
-0.935470212495217

> <r_i_glide_ligand_efficiency_ln>
-2.11139868418109

> <r_i_glide_gscore>
-9.49793110907158

> <r_i_glide_lipo>
-2.90688702268299

> <r_i_glide_hbond>
-0.711030571147905

> <r_i_glide_metal>
-0

> <r_i_glide_rewards>
-1.96595408380101

> <r_i_glide_evdw>
-48.2769470214844

> <r_i_glide_ecoul>
-11.967752456665

> <r_i_glide_erotb>
0.366061694425157

> <r_i_glide_esite>
-0.0711109062908506

> <r_i_glide_emodel>
-97.1000159410494

> <r_i_glide_energy>
-60.2446994781494

> <r_i_glide_einternal>
2.36858034133911

> <i_i_glide_confnum>
56

> <i_i_glide_posenum>
203

> <r_i_glide_eff_state_penalty>
0.0689822

$$$$
