@<TRIPOS>MOLECULE
/home/yujie/leadopt/data/result/selection/CDK9/lig_34.sdf:1
60   63    1
SMALL
USER_CHARGES


@<TRIPOS>ATOM
      1 C1        -42.0125  -34.7855   -0.8195 C.3       1 UNK         0.0000 
      2 C2        -41.5450  -34.1662   -2.1576 C.3       1 UNK         0.0000 
      3 C3        -42.7571  -33.7508   -3.0176 C.3       1 UNK         0.0000 
      4 N4        -40.5717  -34.9803   -2.9378 N.pl3     1 UNK         0.0000 
      5 C5        -40.4825  -36.3658   -2.8667 C.ar      1 UNK         0.0000 
      6 C6        -39.5751  -37.1502   -3.4964 C.ar      1 UNK         0.0000 
      7 C7        -38.6142  -36.4190   -4.3151 C.ar      1 UNK         0.0000 
      8 C8        -38.6719  -35.0742   -4.4094 C.ar      1 UNK         0.0000 
      9 C9        -39.6643  -34.2690   -3.7101 C.ar      1 UNK         0.0000 
     10 O10       -39.6318  -33.0438   -3.8579 O.2       1 UNK         0.0000 
     11 C11       -39.5118  -38.6328   -3.3631 C.ar      1 UNK         0.0000 
     12 C12       -38.2724  -39.2852   -3.4559 C.ar      1 UNK         0.0000 
     13 C13       -38.1913  -40.6720   -3.3620 C.ar      1 UNK         0.0000 
     14 N14       -39.2529  -41.4906   -3.1667 N.ar      1 UNK         0.0000 
     15 C15       -40.4251  -40.8677   -3.0463 C.ar      1 UNK         0.0000 
     16 C16       -40.6406  -39.4613   -3.1231 C.ar      1 UNK         0.0000 
     17 C17       -42.0533  -39.2845   -2.9291 C.ar      1 UNK         0.0000 
     18 C18       -42.6228  -40.5220   -2.6625 C.ar      1 UNK         0.0000 
     19 N19       -41.6331  -41.4726   -2.7803 N.pl3     1 UNK         0.0000 
     20 C20       -44.0478  -40.8721   -2.2760 C.3       1 UNK         0.0000 
     21 C21       -44.8924  -41.4024   -3.4453 C.3       1 UNK         0.0000 
     22 C22       -46.3790  -41.5041   -3.0450 C.3       1 UNK         0.0000 
     23 N23       -46.5320  -42.4100   -1.7964 N.4       1 UNK         0.0000 
     24 C24       -45.6157  -41.9447   -0.6380 C.3       1 UNK         0.0000 
     25 C25       -44.1558  -41.8631   -1.1039 C.3       1 UNK         0.0000 
     26 C26       -48.0125  -42.4005   -1.3117 C.3       1 UNK         0.0000 
     27 C27       -48.3343  -43.6037   -0.4078 C.2       1 UNK         0.0000 
     28 O28       -47.6293  -44.6119   -0.4216 O.2       1 UNK         0.0000 
     29 N29       -49.4217  -43.4852    0.3678 N.am      1 UNK         0.0000 
     30 C30       -49.8807  -44.5243    1.2813 C.3       1 UNK         0.0000 
     31 H31       -41.7982  -42.4628   -2.6309 H         1 UNK         0.0000 
     32 H32       -42.6239  -34.0731   -0.2660 H         1 UNK         0.0000 
     33 H33       -42.6404  -35.6638   -0.9616 H         1 UNK         0.0000 
     34 H34       -41.1742  -35.0496   -0.1760 H         1 UNK         0.0000 
     35 H35       -41.0520  -33.2364   -1.8641 H         1 UNK         0.0000 
     36 H36       -43.4718  -33.1800   -2.4244 H         1 UNK         0.0000 
     37 H37       -42.4645  -33.1079   -3.8493 H         1 UNK         0.0000 
     38 H38       -43.2915  -34.6172   -3.4046 H         1 UNK         0.0000 
     39 H39       -41.2261  -36.7820   -2.2100 H         1 UNK         0.0000 
     40 H40       -37.8558  -36.9491   -4.8711 H         1 UNK         0.0000 
     41 H41       -37.9502  -34.5559   -5.0218 H         1 UNK         0.0000 
     42 H42       -37.3599  -38.7264   -3.5959 H         1 UNK         0.0000 
     43 H43       -37.2301  -41.1570   -3.4426 H         1 UNK         0.0000 
     44 H44       -42.6074  -38.3581   -2.9340 H         1 UNK         0.0000 
     45 H45       -44.5027  -39.9350   -1.9455 H         1 UNK         0.0000 
     46 H46       -44.5288  -42.3683   -3.7992 H         1 UNK         0.0000 
     47 H47       -44.8383  -40.6848   -4.2589 H         1 UNK         0.0000 
     48 H48       -46.9747  -41.9573   -3.8389 H         1 UNK         0.0000 
     49 H49       -46.8009  -40.5295   -2.7915 H         1 UNK         0.0000 
     50 H50       -45.9811  -40.9831   -0.2711 H         1 UNK         0.0000 
     51 H51       -45.7382  -42.6867    0.1423 H         1 UNK         0.0000 
     52 H52       -43.5823  -41.4965   -0.2536 H         1 UNK         0.0000 
     53 H53       -43.7859  -42.8567   -1.3662 H         1 UNK         0.0000 
     54 H54       -48.6292  -42.4633   -2.2097 H         1 UNK         0.0000 
     55 H55       -48.1975  -41.4407   -0.8231 H         1 UNK         0.0000 
     56 H56       -49.9328  -42.6152    0.3665 H         1 UNK         0.0000 
     57 H57       -50.7551  -44.1853    1.8351 H         1 UNK         0.0000 
     58 H58       -49.0994  -44.7802    1.9975 H         1 UNK         0.0000 
     59 H59       -50.1525  -45.4272    0.7313 H         1 UNK         0.0000 
     60 H60       -46.2667  -43.3583   -2.0391 H         1 UNK         0.0000 
@<TRIPOS>BOND
     1    1    2 1    
     2    1   32 1    
     3    1   33 1    
     4    1   34 1    
     5    2    3 1    
     6    2    4 1    
     7    2   35 1    
     8    3   36 1    
     9    3   37 1    
    10    3   38 1    
    11    4    9 ar   
    12    4    5 ar   
    13    5    6 ar   
    14    5   39 1    
    15    6    7 ar   
    16    6   11 1    
    17    7    8 ar   
    18    7   40 1    
    19    8    9 ar   
    20    8   41 1    
    21    9   10 2    
    22   11   16 ar   
    23   11   12 ar   
    24   12   13 ar   
    25   12   42 1    
    26   13   14 ar   
    27   13   43 1    
    28   14   15 ar   
    29   15   19 ar   
    30   15   16 ar   
    31   16   17 ar   
    32   17   18 ar   
    33   17   44 1    
    34   18   19 ar   
    35   18   20 1    
    36   19   31 1    
    37   20   25 1    
    38   20   21 1    
    39   20   45 1    
    40   21   22 1    
    41   21   46 1    
    42   21   47 1    
    43   22   23 1    
    44   22   48 1    
    45   22   49 1    
    46   23   24 1    
    47   23   26 1    
    48   23   60 1    
    49   24   25 1    
    50   24   50 1    
    51   24   51 1    
    52   25   52 1    
    53   25   53 1    
    54   26   27 1    
    55   26   54 1    
    56   26   55 1    
    57   27   28 2    
    58   27   29 am   BACKBONE|DICT|INTERRES
    59   29   30 1    
    60   29   56 1    
    61   30   57 1    
    62   30   58 1    
    63   30   59 1    
@<TRIPOS>SUBSTRUCTURE
     1 UNK         1 GROUP             0       ****    0 ROOT    
