@<TRIPOS>MOLECULE
/home/yujie/leadopt/data/result/selection/CDK9/lig_17.sdf:1
66   70    1
SMALL
USER_CHARGES


@<TRIPOS>ATOM
      1 C1        -41.1069  -36.7041    0.1801 C.3       1 UNK         0.0000 
      2 O2        -40.5036  -37.2850   -0.9717 O.3       1 UNK         0.0000 
      3 C3        -40.2501  -36.5257   -2.0969 C.ar      1 UNK         0.0000 
      4 C4        -40.5310  -35.1574   -2.1705 C.ar      1 UNK         0.0000 
      5 C5        -40.3194  -34.4293   -3.3464 C.ar      1 UNK         0.0000 
      6 C6        -39.6759  -35.0773   -4.4114 C.ar      1 UNK         0.0000 
      7 C7        -39.3648  -36.4303   -4.3458 C.ar      1 UNK         0.0000 
      8 C8        -39.6993  -37.1744   -3.2145 C.ar      1 UNK         0.0000 
      9 C9        -39.5326  -38.6451   -3.2384 C.ar      1 UNK         0.0000 
     10 C10       -38.2897  -39.2527   -3.4566 C.ar      1 UNK         0.0000 
     11 C11       -38.1918  -40.6457   -3.4542 C.ar      1 UNK         0.0000 
     12 N12       -39.2370  -41.4918   -3.2470 N.ar      1 UNK         0.0000 
     13 C13       -40.4140  -40.8873   -3.0568 C.ar      1 UNK         0.0000 
     14 C14       -40.6447  -39.4905   -3.0496 C.ar      1 UNK         0.0000 
     15 C15       -42.0543  -39.3128   -2.8321 C.ar      1 UNK         0.0000 
     16 C16       -42.6288  -40.5626   -2.6856 C.ar      1 UNK         0.0000 
     17 N17       -41.6239  -41.4935   -2.8154 N.pl3     1 UNK         0.0000 
     18 C18       -44.0671  -40.9861   -2.4627 C.3       1 UNK         0.0000 
     19 C19       -44.7680  -41.5018   -3.7452 C.3       1 UNK         0.0000 
     20 C20       -46.1427  -42.1468   -3.5546 C.3       1 UNK         0.0000 
     21 N21       -46.0282  -43.1502   -2.3972 N.4       1 UNK         0.0000 
     22 C22       -45.7538  -42.3972   -1.0788 C.3       1 UNK         0.0000 
     23 C23       -44.3444  -41.7830   -1.1598 C.3       1 UNK         0.0000 
     24 C24       -47.2534  -44.0933   -2.2890 C.3       1 UNK         0.0000 
     25 C25       -47.4337  -44.9828   -3.5507 C.3       1 UNK         0.0000 
     26 O26       -46.2140  -45.4935   -4.0726 O.3       1 UNK         0.0000 
     27 C27       -40.7483  -32.9871   -3.5331 C.2       1 UNK         0.0000 
     28 O28       -40.0315  -32.2935   -4.2567 O.2       1 UNK         0.0000 
     29 N29       -41.9424  -32.5276   -3.0567 N.am      1 UNK         0.0000 
     30 C30       -42.6632  -33.0494   -1.8843 C.3       1 UNK         0.0000 
     31 C31       -43.6836  -31.9733   -1.5296 C.3       1 UNK         0.0000 
     32 C32       -43.2291  -30.7185   -2.2568 C.3       1 UNK         0.0000 
     33 C33       -42.4723  -31.2206   -3.4828 C.3       1 UNK         0.0000 
     34 H34       -41.7886  -42.4898   -2.7224 H         1 UNK         0.0000 
     35 H35       -41.2212  -37.4857    0.9328 H         1 UNK         0.0000 
     36 H36       -40.4854  -35.9154    0.6083 H         1 UNK         0.0000 
     37 H37       -42.0986  -36.3053   -0.0369 H         1 UNK         0.0000 
     38 H38       -40.9103  -34.6797   -1.2904 H         1 UNK         0.0000 
     39 H39       -39.4620  -34.5487   -5.3295 H         1 UNK         0.0000 
     40 H40       -38.9251  -36.9136   -5.2063 H         1 UNK         0.0000 
     41 H41       -37.4073  -38.6483   -3.6132 H         1 UNK         0.0000 
     42 H42       -37.2297  -41.1117   -3.6104 H         1 UNK         0.0000 
     43 H43       -42.5884  -38.3760   -2.7744 H         1 UNK         0.0000 
     44 H44       -44.6877  -40.1100   -2.2587 H         1 UNK         0.0000 
     45 H45       -44.8971  -40.6928   -4.4524 H         1 UNK         0.0000 
     46 H46       -44.1485  -42.2798   -4.1954 H         1 UNK         0.0000 
     47 H47       -46.9078  -41.4180   -3.2792 H         1 UNK         0.0000 
     48 H48       -46.4595  -42.6712   -4.4562 H         1 UNK         0.0000 
     49 H49       -46.5300  -41.6372   -0.9575 H         1 UNK         0.0000 
     50 H50       -45.8419  -43.1016   -0.2562 H         1 UNK         0.0000 
     51 H51       -43.6629  -42.6344   -1.1107 H         1 UNK         0.0000 
     52 H52       -44.1900  -41.1598   -0.2765 H         1 UNK         0.0000 
     53 H53       -47.0799  -44.7104   -1.4058 H         1 UNK         0.0000 
     54 H54       -48.1206  -43.4576   -2.0988 H         1 UNK         0.0000 
     55 H55       -48.0813  -45.8276   -3.3097 H         1 UNK         0.0000 
     56 H56       -47.9585  -44.4305   -4.3314 H         1 UNK         0.0000 
     57 H57       -46.1194  -46.4459   -3.8564 H         1 UNK         0.0000 
     58 H58       -42.0213  -33.0951   -1.0062 H         1 UNK         0.0000 
     59 H59       -43.1644  -33.9993   -2.0753 H         1 UNK         0.0000 
     60 H60       -43.7477  -31.8215   -0.4513 H         1 UNK         0.0000 
     61 H61       -44.6660  -32.2958   -1.8571 H         1 UNK         0.0000 
     62 H62       -44.0295  -30.0286   -2.5191 H         1 UNK         0.0000 
     63 H63       -42.5460  -30.1454   -1.6287 H         1 UNK         0.0000 
     64 H64       -43.2054  -31.3594   -4.2794 H         1 UNK         0.0000 
     65 H65       -41.7004  -30.4918   -3.7402 H         1 UNK         0.0000 
     66 H66       -45.2406  -43.7653   -2.5712 H         1 UNK         0.0000 
@<TRIPOS>BOND
     1    1    2 1    
     2    1   35 1    
     3    1   36 1    
     4    1   37 1    
     5    2    3 1    
     6    3    8 ar   
     7    3    4 ar   
     8    4    5 ar   
     9    4   38 1    
    10    5    6 ar   
    11    5   27 1    
    12    6    7 ar   
    13    6   39 1    
    14    7    8 ar   
    15    7   40 1    
    16    8    9 1    
    17    9   14 ar   
    18    9   10 ar   
    19   10   11 ar   
    20   10   41 1    
    21   11   12 ar   
    22   11   42 1    
    23   12   13 ar   
    24   13   17 ar   
    25   13   14 ar   
    26   14   15 ar   
    27   15   16 ar   
    28   15   43 1    
    29   16   17 ar   
    30   16   18 1    
    31   17   34 1    
    32   18   23 1    
    33   18   19 1    
    34   18   44 1    
    35   19   20 1    
    36   19   45 1    
    37   19   46 1    
    38   20   21 1    
    39   20   47 1    
    40   20   48 1    
    41   21   22 1    
    42   21   24 1    
    43   21   66 1    
    44   22   23 1    
    45   22   49 1    
    46   22   50 1    
    47   23   51 1    
    48   23   52 1    
    49   24   25 1    
    50   24   53 1    
    51   24   54 1    
    52   25   26 1    
    53   25   55 1    
    54   25   56 1    
    55   26   57 1    
    56   27   28 2    
    57   27   29 am   BACKBONE|DICT|INTERRES
    58   29   33 1    
    59   29   30 1    
    60   30   31 1    
    61   30   58 1    
    62   30   59 1    
    63   31   32 1    
    64   31   60 1    
    65   31   61 1    
    66   32   33 1    
    67   32   62 1    
    68   32   63 1    
    69   33   64 1    
    70   33   65 1    
@<TRIPOS>SUBSTRUCTURE
     1 UNK         1 GROUP             0       ****    0 ROOT    
