@<TRIPOS>MOLECULE
/home/yujie/leadopt/data/result/selection/CDK9/lig_18.sdf:1
58   61    1
SMALL
USER_CHARGES


@<TRIPOS>ATOM
      1 C1        -48.9707  -47.1223   -2.3024 C.3       1 UNK         0.0000 
      2 N2        -48.7928  -45.7684   -1.7659 N.am      1 UNK         0.0000 
      3 C3        -49.5717  -45.5135   -0.5507 C.3       1 UNK         0.0000 
      4 C4        -47.9210  -44.8918   -2.3260 C.2       1 UNK         0.0000 
      5 O5        -47.3706  -45.1267   -3.4027 O.2       1 UNK         0.0000 
      6 C6        -47.6024  -43.5636   -1.5966 C.3       1 UNK         0.0000 
      7 N7        -46.1600  -43.0743   -1.9195 N.4       1 UNK         0.0000 
      8 C8        -45.6501  -42.1397   -0.7923 C.3       1 UNK         0.0000 
      9 C9        -44.1869  -41.7433   -1.0763 C.3       1 UNK         0.0000 
     10 C10       -44.0392  -41.0474   -2.4501 C.3       1 UNK         0.0000 
     11 C11       -44.6028  -41.9770   -3.5501 C.3       1 UNK         0.0000 
     12 C12       -46.0727  -42.3407   -3.2832 C.3       1 UNK         0.0000 
     13 C13       -42.6170  -40.5856   -2.7292 C.ar      1 UNK         0.0000 
     14 C14       -42.0677  -39.3241   -2.9321 C.ar      1 UNK         0.0000 
     15 C15       -40.6456  -39.4710   -3.1101 C.ar      1 UNK         0.0000 
     16 C16       -39.5307  -38.6203   -3.3128 C.ar      1 UNK         0.0000 
     17 C17       -38.2787  -39.2379   -3.4510 C.ar      1 UNK         0.0000 
     18 C18       -38.1689  -40.6264   -3.3839 C.ar      1 UNK         0.0000 
     19 N19       -39.2120  -41.4704   -3.1850 N.ar      1 UNK         0.0000 
     20 C20       -40.3948  -40.8680   -3.0564 C.ar      1 UNK         0.0000 
     21 N21       -41.5893  -41.4935   -2.8110 N.pl3     1 UNK         0.0000 
     22 C22       -39.6408  -37.1371   -3.3904 C.ar      1 UNK         0.0000 
     23 C23       -39.0827  -36.4834   -4.4971 C.ar      1 UNK         0.0000 
     24 C24       -39.1276  -35.0980   -4.6076 C.ar      1 UNK         0.0000 
     25 C25       -39.7408  -34.3430   -3.6173 C.ar      1 UNK         0.0000 
     26 C26       -40.3004  -34.9731   -2.5085 C.ar      1 UNK         0.0000 
     27 C27       -40.2475  -36.3729   -2.3723 C.ar      1 UNK         0.0000 
     28 O28       -40.7405  -37.0445   -1.2661 O.3       1 UNK         0.0000 
     29 C29       -41.2964  -36.3108   -0.1774 C.3       1 UNK         0.0000 
     30 F30       -39.7792  -32.9969   -3.7348 F         1 UNK         0.0000 
     31 H31       -41.7278  -42.4889   -2.6713 H         1 UNK         0.0000 
     32 H32       -48.3173  -47.3373   -3.1508 H         1 UNK         0.0000 
     33 H33       -49.9993  -47.2679   -2.6306 H         1 UNK         0.0000 
     34 H34       -48.7493  -47.8644   -1.5353 H         1 UNK         0.0000 
     35 H35       -49.1261  -46.0362    0.2976 H         1 UNK         0.0000 
     36 H36       -49.6528  -44.4559   -0.2986 H         1 UNK         0.0000 
     37 H37       -50.5917  -45.8833   -0.6710 H         1 UNK         0.0000 
     38 H38       -48.2804  -42.7575   -1.8795 H         1 UNK         0.0000 
     39 H39       -47.6378  -43.6948   -0.5150 H         1 UNK         0.0000 
     40 H40       -46.3156  -41.2742   -0.7479 H         1 UNK         0.0000 
     41 H41       -45.7420  -42.6862    0.1431 H         1 UNK         0.0000 
     42 H42       -43.8671  -41.0723   -0.2789 H         1 UNK         0.0000 
     43 H43       -43.5774  -42.6483   -1.0327 H         1 UNK         0.0000 
     44 H44       -44.6845  -40.1663   -2.4264 H         1 UNK         0.0000 
     45 H45       -44.0261  -42.9020   -3.6067 H         1 UNK         0.0000 
     46 H46       -44.5735  -41.4938   -4.5236 H         1 UNK         0.0000 
     47 H47       -46.4572  -42.9950   -4.0642 H         1 UNK         0.0000 
     48 H48       -46.7128  -41.4582   -3.2222 H         1 UNK         0.0000 
     49 H49       -42.6252  -38.3991   -2.9179 H         1 UNK         0.0000 
     50 H50       -37.3898  -38.6413   -3.6018 H         1 UNK         0.0000 
     51 H51       -37.2008  -41.0936   -3.4855 H         1 UNK         0.0000 
     52 H52       -38.6023  -37.0538   -5.2796 H         1 UNK         0.0000 
     53 H53       -38.6821  -34.6062   -5.4562 H         1 UNK         0.0000 
     54 H54       -40.7603  -34.3504   -1.7566 H         1 UNK         0.0000 
     55 H55       -41.6119  -37.0063    0.6007 H         1 UNK         0.0000 
     56 H56       -40.5654  -35.6325    0.2663 H         1 UNK         0.0000 
     57 H57       -42.1751  -35.7410   -0.4833 H         1 UNK         0.0000 
     58 H58       -45.5690  -43.9051   -1.9421 H         1 UNK         0.0000 
@<TRIPOS>BOND
     1    1    2 1    
     2    1   32 1    
     3    1   33 1    
     4    1   34 1    
     5    2    3 1    
     6    2    4 am   BACKBONE|DICT|INTERRES
     7    3   35 1    
     8    3   36 1    
     9    3   37 1    
    10    4    5 2    
    11    4    6 1    
    12    6    7 1    
    13    6   38 1    
    14    6   39 1    
    15    7   12 1    
    16    7    8 1    
    17    7   58 1    
    18    8    9 1    
    19    8   40 1    
    20    8   41 1    
    21    9   10 1    
    22    9   42 1    
    23    9   43 1    
    24   10   11 1    
    25   10   13 1    
    26   10   44 1    
    27   11   12 1    
    28   11   45 1    
    29   11   46 1    
    30   12   47 1    
    31   12   48 1    
    32   13   21 ar   
    33   13   14 ar   
    34   14   15 ar   
    35   14   49 1    
    36   15   20 ar   
    37   15   16 ar   
    38   16   17 ar   
    39   16   22 1    
    40   17   18 ar   
    41   17   50 1    
    42   18   19 ar   
    43   18   51 1    
    44   19   20 ar   
    45   20   21 ar   
    46   21   31 1    
    47   22   27 ar   
    48   22   23 ar   
    49   23   24 ar   
    50   23   52 1    
    51   24   25 ar   
    52   24   53 1    
    53   25   26 ar   
    54   25   30 1    
    55   26   27 ar   
    56   26   54 1    
    57   27   28 1    
    58   28   29 1    
    59   29   55 1    
    60   29   56 1    
    61   29   57 1    
@<TRIPOS>SUBSTRUCTURE
     1 UNK         1 GROUP             0       ****    0 ROOT    
