@<TRIPOS>MOLECULE
/home/yujie/leadopt/data/result/selection/CDK9/lig_32.sdf:1
62   65    1
SMALL
USER_CHARGES


@<TRIPOS>ATOM
      1 C1        -43.4022  -34.0797   -3.7959 C.3       1 UNK         0.0000 
      2 C2        -42.4283  -34.6263   -2.7299 C.3       1 UNK         0.0000 
      3 C3        -42.2896  -33.6559   -1.5405 C.3       1 UNK         0.0000 
      4 N4        -41.1302  -35.1168   -3.2688 N.pl3     1 UNK         0.0000 
      5 C5        -40.2209  -34.2370   -3.8340 C.ar      1 UNK         0.0000 
      6 O6        -40.3610  -33.0276   -4.0301 O.2       1 UNK         0.0000 
      7 C7        -38.9991  -34.9120   -4.2374 C.ar      1 UNK         0.0000 
      8 C8        -38.8269  -36.2478   -4.1129 C.ar      1 UNK         0.0000 
      9 C9        -39.8530  -37.0985   -3.5426 C.ar      1 UNK         0.0000 
     10 N10       -40.9350  -36.5019   -3.1604 N.2       1 UNK         0.0000 
     11 C11       -39.6396  -38.5608   -3.4036 C.ar      1 UNK         0.0000 
     12 C12       -38.3592  -39.1436   -3.4567 C.ar      1 UNK         0.0000 
     13 C13       -38.2117  -40.5248   -3.3293 C.ar      1 UNK         0.0000 
     14 N14       -39.2287  -41.3995   -3.1342 N.ar      1 UNK         0.0000 
     15 C15       -40.4334  -40.8366   -3.0645 C.ar      1 UNK         0.0000 
     16 C16       -40.7258  -39.4504   -3.1938 C.ar      1 UNK         0.0000 
     17 C17       -42.1509  -39.3465   -3.0535 C.ar      1 UNK         0.0000 
     18 C18       -42.6549  -40.6004   -2.7479 C.ar      1 UNK         0.0000 
     19 N19       -41.6124  -41.4935   -2.8072 N.pl3     1 UNK         0.0000 
     20 C20       -44.0479  -41.0473   -2.3583 C.3       1 UNK         0.0000 
     21 C21       -44.7798  -39.9629   -1.5415 C.3       1 UNK         0.0000 
     22 C22       -46.1433  -40.4604   -1.0566 C.3       1 UNK         0.0000 
     23 N23       -46.9921  -40.8539   -2.2854 N.4       1 UNK         0.0000 
     24 C24       -46.3046  -41.9737   -3.1070 C.3       1 UNK         0.0000 
     25 C25       -44.9122  -41.4886   -3.5597 C.3       1 UNK         0.0000 
     26 C26       -48.4217  -41.2722   -1.8399 C.3       1 UNK         0.0000 
     27 C27       -49.4626  -40.9038   -2.9230 C.2       1 UNK         0.0000 
     28 O28       -49.1373  -40.1252   -3.8262 O.2       1 UNK         0.0000 
     29 N29       -50.7146  -41.4242   -2.8370 N.am      1 UNK         0.0000 
     30 C30       -51.7479  -41.1461   -3.8414 C.3       1 UNK         0.0000 
     31 C31       -51.1808  -42.3183   -1.7725 C.3       1 UNK         0.0000 
     32 H32       -41.7248  -42.4855   -2.6220 H         1 UNK         0.0000 
     33 H33       -44.3513  -33.7983   -3.3380 H         1 UNK         0.0000 
     34 H34       -43.0215  -33.1686   -4.2567 H         1 UNK         0.0000 
     35 H35       -43.6291  -34.8204   -4.5629 H         1 UNK         0.0000 
     36 H36       -42.9474  -35.4898   -2.3051 H         1 UNK         0.0000 
     37 H37       -43.2652  -33.4031   -1.1246 H         1 UNK         0.0000 
     38 H38       -41.6894  -34.0724   -0.7302 H         1 UNK         0.0000 
     39 H39       -41.8553  -32.7085   -1.8578 H         1 UNK         0.0000 
     40 H40       -38.2111  -34.3096   -4.6634 H         1 UNK         0.0000 
     41 H41       -37.8905  -36.6547   -4.4560 H         1 UNK         0.0000 
     42 H42       -37.4653  -38.5511   -3.5843 H         1 UNK         0.0000 
     43 H43       -37.2292  -40.9648   -3.3674 H         1 UNK         0.0000 
     44 H44       -42.7404  -38.4423   -3.0912 H         1 UNK         0.0000 
     45 H45       -43.9652  -41.9148   -1.6984 H         1 UNK         0.0000 
     46 H46       -44.9328  -39.0595   -2.1355 H         1 UNK         0.0000 
     47 H47       -44.1964  -39.7032   -0.6567 H         1 UNK         0.0000 
     48 H48       -46.6794  -39.6706   -0.5274 H         1 UNK         0.0000 
     49 H49       -46.0476  -41.3393   -0.4160 H         1 UNK         0.0000 
     50 H50       -46.2414  -42.8559   -2.4659 H         1 UNK         0.0000 
     51 H51       -46.9538  -42.1948   -3.9561 H         1 UNK         0.0000 
     52 H52       -44.4290  -42.3117   -4.0872 H         1 UNK         0.0000 
     53 H53       -45.0544  -40.6615   -4.2548 H         1 UNK         0.0000 
     54 H54       -48.6478  -40.6935   -0.9411 H         1 UNK         0.0000 
     55 H55       -48.3822  -42.3307   -1.5787 H         1 UNK         0.0000 
     56 H56       -51.4218  -40.4411   -4.6091 H         1 UNK         0.0000 
     57 H57       -52.6326  -40.7232   -3.3632 H         1 UNK         0.0000 
     58 H58       -52.0467  -42.0679   -4.3444 H         1 UNK         0.0000 
     59 H59       -50.4529  -42.4971   -0.9808 H         1 UNK         0.0000 
     60 H60       -52.0671  -41.8945   -1.2964 H         1 UNK         0.0000 
     61 H61       -51.4611  -43.2863   -2.1918 H         1 UNK         0.0000 
     62 H62       -47.0876  -40.0286   -2.8664 H         1 UNK         0.0000 
@<TRIPOS>BOND
     1    1    2 1    
     2    1   33 1    
     3    1   34 1    
     4    1   35 1    
     5    2    3 1    
     6    2    4 1    
     7    2   36 1    
     8    3   37 1    
     9    3   38 1    
    10    3   39 1    
    11    4   10 ar   
    12    4    5 ar   
    13    5    6 2    
    14    5    7 ar   
    15    7    8 ar   
    16    7   40 1    
    17    8    9 ar   
    18    8   41 1    
    19    9   10 ar   
    20    9   11 1    
    21   11   16 ar   
    22   11   12 ar   
    23   12   13 ar   
    24   12   42 1    
    25   13   14 ar   
    26   13   43 1    
    27   14   15 ar   
    28   15   19 ar   
    29   15   16 ar   
    30   16   17 ar   
    31   17   18 ar   
    32   17   44 1    
    33   18   19 ar   
    34   18   20 1    
    35   19   32 1    
    36   20   25 1    
    37   20   21 1    
    38   20   45 1    
    39   21   22 1    
    40   21   46 1    
    41   21   47 1    
    42   22   23 1    
    43   22   48 1    
    44   22   49 1    
    45   23   24 1    
    46   23   26 1    
    47   23   62 1    
    48   24   25 1    
    49   24   50 1    
    50   24   51 1    
    51   25   52 1    
    52   25   53 1    
    53   26   27 1    
    54   26   54 1    
    55   26   55 1    
    56   27   28 2    
    57   27   29 am   BACKBONE|DICT|INTERRES
    58   29   30 1    
    59   29   31 1    
    60   30   56 1    
    61   30   57 1    
    62   30   58 1    
    63   31   59 1    
    64   31   60 1    
    65   31   61 1    
@<TRIPOS>SUBSTRUCTURE
     1 UNK         1 GROUP             0       ****    0 ROOT    
