@<TRIPOS>MOLECULE
/home/yujie/leadopt/data/result/selection/CDK9/lig_25.sdf:1
66   69    1
SMALL
USER_CHARGES


@<TRIPOS>ATOM
      1 C1        -43.7234  -35.5413   -2.7337 C.3       1 UNK         0.0000 
      2 C2        -43.0918  -34.1977   -2.3172 C.3       1 UNK         0.0000 
      3 C3        -43.3324  -33.1084   -3.3716 C.3       1 UNK         0.0000 
      4 C4        -41.6017  -34.3032   -1.8962 C.3       1 UNK         0.0000 
      5 N5        -40.6993  -35.0214   -2.8221 N.pl3     1 UNK         0.0000 
      6 C6        -40.5517  -36.3954   -2.7528 C.ar      1 UNK         0.0000 
      7 C7        -39.6887  -37.1479   -3.4733 C.ar      1 UNK         0.0000 
      8 C8        -38.8369  -36.3907   -4.3853 C.ar      1 UNK         0.0000 
      9 C9        -38.9644  -35.0485   -4.4819 C.ar      1 UNK         0.0000 
     10 C10       -39.9239  -34.2775   -3.6962 C.ar      1 UNK         0.0000 
     11 O11       -39.9682  -33.0558   -3.8560 O.2       1 UNK         0.0000 
     12 C12       -39.5787  -38.6208   -3.3320 C.ar      1 UNK         0.0000 
     13 C13       -38.3234  -39.2384   -3.4571 C.ar      1 UNK         0.0000 
     14 C14       -38.2001  -40.6224   -3.3400 C.ar      1 UNK         0.0000 
     15 N15       -39.2333  -41.4655   -3.0952 N.ar      1 UNK         0.0000 
     16 C16       -40.4192  -40.8649   -2.9758 C.ar      1 UNK         0.0000 
     17 C17       -40.6869  -39.4734   -3.0765 C.ar      1 UNK         0.0000 
     18 C18       -42.1161  -39.3443   -2.8995 C.ar      1 UNK         0.0000 
     19 C19       -42.6518  -40.6094   -2.6672 C.ar      1 UNK         0.0000 
     20 N20       -41.6044  -41.4936   -2.7051 N.pl3     1 UNK         0.0000 
     21 C21       -44.0761  -41.1060   -2.4314 C.3       1 UNK         0.0000 
     22 C22       -44.5351  -42.1262   -3.4986 C.3       1 UNK         0.0000 
     23 C23       -46.0208  -42.4908   -3.3252 C.3       1 UNK         0.0000 
     24 N24       -46.2572  -43.0932   -1.9156 N.4       1 UNK         0.0000 
     25 C25       -45.7763  -42.1127   -0.8106 C.3       1 UNK         0.0000 
     26 C26       -44.2896  -41.7499   -1.0404 C.3       1 UNK         0.0000 
     27 C27       -47.7717  -43.4255   -1.7584 C.3       1 UNK         0.0000 
     28 C28       -47.9976  -44.5596   -0.7362 C.2       1 UNK         0.0000 
     29 O29       -47.9897  -44.2649    0.4596 O.2       1 UNK         0.0000 
     30 N30       -48.2332  -45.8262   -1.1682 N.am      1 UNK         0.0000 
     31 C31       -48.6829  -46.8861   -0.2626 C.3       1 UNK         0.0000 
     32 C32       -48.0939  -46.2820   -2.5538 C.3       1 UNK         0.0000 
     33 H33       -41.7289  -42.4897   -2.5555 H         1 UNK         0.0000 
     34 H34       -43.2817  -35.9273   -3.6535 H         1 UNK         0.0000 
     35 H35       -44.7959  -35.4376   -2.9070 H         1 UNK         0.0000 
     36 H36       -43.5977  -36.2940   -1.9547 H         1 UNK         0.0000 
     37 H37       -43.6300  -33.8635   -1.4284 H         1 UNK         0.0000 
     38 H38       -42.7249  -33.2670   -4.2566 H         1 UNK         0.0000 
     39 H39       -44.3762  -33.0922   -3.6860 H         1 UNK         0.0000 
     40 H40       -43.0825  -32.1204   -2.9828 H         1 UNK         0.0000 
     41 H41       -41.2258  -33.2991   -1.6888 H         1 UNK         0.0000 
     42 H42       -41.5587  -34.8169   -0.9344 H         1 UNK         0.0000 
     43 H43       -41.2203  -36.8254   -2.0205 H         1 UNK         0.0000 
     44 H44       -38.1064  -36.8982   -5.0001 H         1 UNK         0.0000 
     45 H45       -38.3277  -34.5037   -5.1604 H         1 UNK         0.0000 
     46 H46       -37.4348  -38.6502   -3.6366 H         1 UNK         0.0000 
     47 H47       -37.2294  -41.0886   -3.4352 H         1 UNK         0.0000 
     48 H48       -42.6996  -38.4368   -2.9382 H         1 UNK         0.0000 
     49 H49       -44.7387  -40.2401   -2.4960 H         1 UNK         0.0000 
     50 H50       -44.4287  -41.7025   -4.4958 H         1 UNK         0.0000 
     51 H51       -43.9387  -43.0396   -3.4497 H         1 UNK         0.0000 
     52 H52       -46.6723  -41.6190   -3.4206 H         1 UNK         0.0000 
     53 H53       -46.3238  -43.2479   -4.0510 H         1 UNK         0.0000 
     54 H54       -46.4211  -41.2314   -0.8367 H         1 UNK         0.0000 
     55 H55       -45.9326  -42.6139    0.1432 H         1 UNK         0.0000 
     56 H56       -43.6850  -42.6520   -0.9284 H         1 UNK         0.0000 
     57 H57       -44.0011  -41.0493   -0.2570 H         1 UNK         0.0000 
     58 H58       -48.2805  -42.5088   -1.4559 H         1 UNK         0.0000 
     59 H59       -48.1608  -43.6871   -2.7414 H         1 UNK         0.0000 
     60 H60       -48.8190  -46.5455    0.7651 H         1 UNK         0.0000 
     61 H61       -49.6380  -47.2895   -0.6005 H         1 UNK         0.0000 
     62 H62       -47.9603  -47.7031   -0.2570 H         1 UNK         0.0000 
     63 H63       -47.4597  -45.6386   -3.1622 H         1 UNK         0.0000 
     64 H64       -47.6299  -47.2684   -2.5786 H         1 UNK         0.0000 
     65 H65       -49.0704  -46.3694   -3.0304 H         1 UNK         0.0000 
     66 H66       -45.7198  -43.9572   -1.8511 H         1 UNK         0.0000 
@<TRIPOS>BOND
     1    1    2 1    
     2    1   34 1    
     3    1   35 1    
     4    1   36 1    
     5    2    3 1    
     6    2    4 1    
     7    2   37 1    
     8    3   38 1    
     9    3   39 1    
    10    3   40 1    
    11    4    5 1    
    12    4   41 1    
    13    4   42 1    
    14    5   10 ar   
    15    5    6 ar   
    16    6    7 ar   
    17    6   43 1    
    18    7    8 ar   
    19    7   12 1    
    20    8    9 ar   
    21    8   44 1    
    22    9   10 ar   
    23    9   45 1    
    24   10   11 2    
    25   12   17 ar   
    26   12   13 ar   
    27   13   14 ar   
    28   13   46 1    
    29   14   15 ar   
    30   14   47 1    
    31   15   16 ar   
    32   16   20 ar   
    33   16   17 ar   
    34   17   18 ar   
    35   18   19 ar   
    36   18   48 1    
    37   19   20 ar   
    38   19   21 1    
    39   20   33 1    
    40   21   26 1    
    41   21   22 1    
    42   21   49 1    
    43   22   23 1    
    44   22   50 1    
    45   22   51 1    
    46   23   24 1    
    47   23   52 1    
    48   23   53 1    
    49   24   25 1    
    50   24   27 1    
    51   24   66 1    
    52   25   26 1    
    53   25   54 1    
    54   25   55 1    
    55   26   56 1    
    56   26   57 1    
    57   27   28 1    
    58   27   58 1    
    59   27   59 1    
    60   28   29 2    
    61   28   30 am   BACKBONE|DICT|INTERRES
    62   30   31 1    
    63   30   32 1    
    64   31   60 1    
    65   31   61 1    
    66   31   62 1    
    67   32   63 1    
    68   32   64 1    
    69   32   65 1    
@<TRIPOS>SUBSTRUCTURE
     1 UNK         1 GROUP             0       ****    0 ROOT    
