@<TRIPOS>MOLECULE
/home/yujie/leadopt/data/result/selection/CDK9/lig_19.sdf:1
71   75    1
SMALL
USER_CHARGES


@<TRIPOS>ATOM
      1 C1        -51.4057  -41.0211   -5.1007 C.3       1 UNK         0.0000 
      2 N2        -50.3942  -41.7056   -4.2898 N.am      1 UNK         0.0000 
      3 C3        -50.9684  -42.7569   -3.4423 C.3       1 UNK         0.0000 
      4 C4        -49.0752  -41.3685   -4.3295 C.2       1 UNK         0.0000 
      5 O5        -48.6661  -40.4528   -5.0539 O.2       1 UNK         0.0000 
      6 C6        -48.0811  -42.1860   -3.4542 C.3       1 UNK         0.0000 
      7 N7        -46.6841  -41.7126   -3.5410 N.3       1 UNK         0.0000 
      8 C8        -46.4529  -40.5097   -2.7215 C.3       1 UNK         0.0000 
      9 C9        -45.0113  -39.9713   -2.8570 C.3       1 UNK         0.0000 
     10 C10       -43.9305  -41.0493   -2.6199 C.3       1 UNK         0.0000 
     11 C11       -44.2919  -42.3672   -3.3459 C.3       1 UNK         0.0000 
     12 C12       -45.7593  -42.7823   -3.1416 C.3       1 UNK         0.0000 
     13 C13       -42.4983  -40.5833   -2.8197 C.ar      1 UNK         0.0000 
     14 C14       -41.9345  -39.3262   -2.9861 C.ar      1 UNK         0.0000 
     15 C15       -40.5115  -39.4886   -3.1031 C.ar      1 UNK         0.0000 
     16 C16       -39.3972  -38.6383   -3.2428 C.ar      1 UNK         0.0000 
     17 C17       -38.1363  -39.2350   -3.3680 C.ar      1 UNK         0.0000 
     18 C18       -38.0269  -40.6260   -3.3121 C.ar      1 UNK         0.0000 
     19 N19       -39.0726  -41.4759   -3.1427 N.ar      1 UNK         0.0000 
     20 C20       -40.2625  -40.8799   -3.0564 C.ar      1 UNK         0.0000 
     21 N21       -41.4702  -41.4936   -2.8530 N.pl3     1 UNK         0.0000 
     22 C22       -39.5796  -37.1713   -3.2585 C.ar      1 UNK         0.0000 
     23 C23       -39.2575  -36.4549   -4.4127 C.ar      1 UNK         0.0000 
     24 C24       -39.5833  -35.1065   -4.5184 C.ar      1 UNK         0.0000 
     25 C25       -40.2109  -34.4399   -3.4590 C.ar      1 UNK         0.0000 
     26 C26       -40.3896  -35.1312   -2.2584 C.ar      1 UNK         0.0000 
     27 C27       -40.1345  -36.5002   -2.1551 C.ar      1 UNK         0.0000 
     28 O28       -40.4296  -37.2246   -1.0153 O.3       1 UNK         0.0000 
     29 C29       -41.0551  -36.5935    0.1027 C.3       1 UNK         0.0000 
     30 C30       -40.6720  -33.0121   -3.6492 C.2       1 UNK         0.0000 
     31 O31       -40.0295  -32.2936   -4.4095 O.2       1 UNK         0.0000 
     32 N32       -41.7992  -32.5475   -3.0566 N.am      1 UNK         0.0000 
     33 C33       -42.6533  -33.2368   -2.0803 C.3       1 UNK         0.0000 
     34 C34       -43.8813  -32.3573   -2.0214 C.3       1 UNK         0.0000 
     35 C35       -43.3136  -30.9622   -2.2567 C.3       1 UNK         0.0000 
     36 C36       -42.2575  -31.1773   -3.3240 C.3       1 UNK         0.0000 
     37 H37       -41.6301  -42.4881   -2.7224 H         1 UNK         0.0000 
     38 H38       -52.1182  -40.5014   -4.4591 H         1 UNK         0.0000 
     39 H39       -51.9600  -41.7467   -5.6978 H         1 UNK         0.0000 
     40 H40       -50.9816  -40.2940   -5.7931 H         1 UNK         0.0000 
     41 H41       -51.4928  -43.4862   -4.0613 H         1 UNK         0.0000 
     42 H42       -50.2404  -43.3063   -2.8477 H         1 UNK         0.0000 
     43 H43       -51.6955  -42.3255   -2.7533 H         1 UNK         0.0000 
     44 H44       -48.4090  -42.1807   -2.4122 H         1 UNK         0.0000 
     45 H45       -48.1449  -43.2166   -3.8108 H         1 UNK         0.0000 
     46 H46       -47.1412  -39.7252   -3.0359 H         1 UNK         0.0000 
     47 H47       -46.6904  -40.7192   -1.6755 H         1 UNK         0.0000 
     48 H48       -44.9287  -39.5443   -3.8569 H         1 UNK         0.0000 
     49 H49       -44.9023  -39.1697   -2.1273 H         1 UNK         0.0000 
     50 H50       -44.0761  -41.3142   -1.5701 H         1 UNK         0.0000 
     51 H51       -43.6844  -43.1891   -2.9651 H         1 UNK         0.0000 
     52 H52       -44.1318  -42.2805   -4.4215 H         1 UNK         0.0000 
     53 H53       -45.9494  -43.0813   -2.1082 H         1 UNK         0.0000 
     54 H54       -45.9474  -43.6667   -3.7546 H         1 UNK         0.0000 
     55 H55       -42.4888  -38.3994   -2.9907 H         1 UNK         0.0000 
     56 H56       -37.2507  -38.6260   -3.4865 H         1 UNK         0.0000 
     57 H57       -37.0575  -41.0934   -3.3937 H         1 UNK         0.0000 
     58 H58       -38.8158  -36.9609   -5.2594 H         1 UNK         0.0000 
     59 H59       -39.3926  -34.6013   -5.4537 H         1 UNK         0.0000 
     60 H60       -40.7559  -34.6140   -1.3929 H         1 UNK         0.0000 
     61 H61       -41.2185  -37.3274    0.8915 H         1 UNK         0.0000 
     62 H62       -40.4296  -35.8041    0.5226 H         1 UNK         0.0000 
     63 H63       -42.0264  -36.1737   -0.1639 H         1 UNK         0.0000 
     64 H64       -42.9127  -34.2548   -2.3762 H         1 UNK         0.0000 
     65 H65       -42.1822  -33.2099   -1.0965 H         1 UNK         0.0000 
     66 H66       -44.5312  -32.6936   -2.8300 H         1 UNK         0.0000 
     67 H67       -44.4275  -32.4603   -1.0837 H         1 UNK         0.0000 
     68 H68       -42.8332  -30.5892   -1.3499 H         1 UNK         0.0000 
     69 H69       -44.0295  -30.2013   -2.5511 H         1 UNK         0.0000 
     70 H70       -41.4610  -30.4418   -3.2033 H         1 UNK         0.0000 
     71 H71       -42.7150  -31.1157   -4.3125 H         1 UNK         0.0000 
@<TRIPOS>BOND
     1    1    2 1    
     2    1   38 1    
     3    1   39 1    
     4    1   40 1    
     5    2    3 1    
     6    2    4 am   BACKBONE|DICT|INTERRES
     7    3   41 1    
     8    3   42 1    
     9    3   43 1    
    10    4    5 2    
    11    4    6 1    
    12    6    7 1    
    13    6   44 1    
    14    6   45 1    
    15    7   12 1    
    16    7    8 1    
    17    8    9 1    
    18    8   46 1    
    19    8   47 1    
    20    9   10 1    
    21    9   48 1    
    22    9   49 1    
    23   10   11 1    
    24   10   13 1    
    25   10   50 1    
    26   11   12 1    
    27   11   51 1    
    28   11   52 1    
    29   12   53 1    
    30   12   54 1    
    31   13   21 ar   
    32   13   14 ar   
    33   14   15 ar   
    34   14   55 1    
    35   15   20 ar   
    36   15   16 ar   
    37   16   17 ar   
    38   16   22 1    
    39   17   18 ar   
    40   17   56 1    
    41   18   19 ar   
    42   18   57 1    
    43   19   20 ar   
    44   20   21 ar   
    45   21   37 1    
    46   22   27 ar   
    47   22   23 ar   
    48   23   24 ar   
    49   23   58 1    
    50   24   25 ar   
    51   24   59 1    
    52   25   26 ar   
    53   25   30 1    
    54   26   27 ar   
    55   26   60 1    
    56   27   28 1    
    57   28   29 1    
    58   29   61 1    
    59   29   62 1    
    60   29   63 1    
    61   30   31 2    
    62   30   32 am   BACKBONE|DICT|INTERRES
    63   32   36 1    
    64   32   33 1    
    65   33   34 1    
    66   33   64 1    
    67   33   65 1    
    68   34   35 1    
    69   34   66 1    
    70   34   67 1    
    71   35   36 1    
    72   35   68 1    
    73   35   69 1    
    74   36   70 1    
    75   36   71 1    
@<TRIPOS>SUBSTRUCTURE
     1 UNK         1 GROUP             0       ****    0 ROOT    
