@<TRIPOS>MOLECULE
/home/yujie/leadopt/data/result/selection/CDK9/lig_13.sdf:1
49   52    1
SMALL
USER_CHARGES


@<TRIPOS>ATOM
      1 C1        -48.4986  -40.8267   -1.0566 C.3       1 UNK         0.0000 
      2 C2        -47.6410  -42.0270   -1.4570 C.2       1 UNK         0.0000 
      3 O3        -47.8436  -43.0957   -0.8761 O.2       1 UNK         0.0000 
      4 N4        -46.6425  -41.8565   -2.3618 N.am      1 UNK         0.0000 
      5 C5        -45.7131  -42.9564   -2.6682 C.3       1 UNK         0.0000 
      6 C6        -44.2898  -42.4356   -2.3600 C.3       1 UNK         0.0000 
      7 C7        -43.9605  -41.1476   -3.1625 C.3       1 UNK         0.0000 
      8 C8        -45.0684  -40.0848   -2.9635 C.3       1 UNK         0.0000 
      9 C9        -46.4913  -40.6497   -3.1973 C.3       1 UNK         0.0000 
     10 C10       -42.5313  -40.6157   -3.0564 C.ar      1 UNK         0.0000 
     11 C11       -41.9818  -39.3346   -3.0898 C.ar      1 UNK         0.0000 
     12 C12       -40.5453  -39.4546   -3.1218 C.ar      1 UNK         0.0000 
     13 C13       -39.4272  -38.5876   -3.2157 C.ar      1 UNK         0.0000 
     14 C14       -38.1564  -39.1851   -3.2196 C.ar      1 UNK         0.0000 
     15 C15       -38.0318  -40.5727   -3.1336 C.ar      1 UNK         0.0000 
     16 N16       -39.0793  -41.4324   -3.0599 N.ar      1 UNK         0.0000 
     17 C17       -40.2769  -40.8473   -3.0555 C.ar      1 UNK         0.0000 
     18 N18       -41.4818  -41.4936   -2.9904 N.pl3     1 UNK         0.0000 
     19 C19       -39.5496  -37.1101   -3.3491 C.ar      1 UNK         0.0000 
     20 C20       -38.9336  -36.4920   -4.4456 C.ar      1 UNK         0.0000 
     21 C21       -38.9859  -35.1135   -4.6117 C.ar      1 UNK         0.0000 
     22 C22       -39.6574  -34.3278   -3.6853 C.ar      1 UNK         0.0000 
     23 C23       -40.2746  -34.9239   -2.5869 C.ar      1 UNK         0.0000 
     24 C24       -40.2254  -36.3181   -2.3996 C.ar      1 UNK         0.0000 
     25 O25       -40.7836  -36.9592   -1.3065 O.3       1 UNK         0.0000 
     26 C26       -41.4648  -36.1988   -0.3111 C.3       1 UNK         0.0000 
     27 F27       -39.6966  -32.9874   -3.8519 F         1 UNK         0.0000 
     28 H28       -41.6287  -42.4945   -2.9151 H         1 UNK         0.0000 
     29 H29       -49.1602  -40.5293   -1.8701 H         1 UNK         0.0000 
     30 H30       -47.8702  -39.9810   -0.7729 H         1 UNK         0.0000 
     31 H31       -49.1108  -41.0766   -0.1892 H         1 UNK         0.0000 
     32 H32       -45.9520  -43.8924   -2.1564 H         1 UNK         0.0000 
     33 H33       -45.8084  -43.1718   -3.7324 H         1 UNK         0.0000 
     34 H34       -44.1981  -42.2709   -1.2844 H         1 UNK         0.0000 
     35 H35       -43.6268  -43.2494   -2.6524 H         1 UNK         0.0000 
     36 H36       -44.0902  -41.4928   -4.1913 H         1 UNK         0.0000 
     37 H37       -44.9481  -39.2752   -3.6839 H         1 UNK         0.0000 
     38 H38       -45.0264  -39.6696   -1.9551 H         1 UNK         0.0000 
     39 H39       -46.5881  -40.9630   -4.2375 H         1 UNK         0.0000 
     40 H40       -47.2562  -39.8919   -3.0294 H         1 UNK         0.0000 
     41 H41       -42.5526  -38.4194   -3.1348 H         1 UNK         0.0000 
     42 H42       -37.2670  -38.5731   -3.2859 H         1 UNK         0.0000 
     43 H43       -37.0509  -41.0276   -3.1270 H         1 UNK         0.0000 
     44 H44       -38.4040  -37.0880   -5.1766 H         1 UNK         0.0000 
     45 H45       -38.5001  -34.6508   -5.4552 H         1 UNK         0.0000 
     46 H46       -40.7748  -34.2783   -1.8811 H         1 UNK         0.0000 
     47 H47       -41.8478  -36.8686    0.4592 H         1 UNK         0.0000 
     48 H48       -40.7975  -35.4870    0.1775 H         1 UNK         0.0000 
     49 H49       -42.3186  -35.6599   -0.7300 H         1 UNK         0.0000 
@<TRIPOS>BOND
     1    1    2 1    
     2    1   29 1    
     3    1   30 1    
     4    1   31 1    
     5    2    3 2    
     6    2    4 am   BACKBONE|DICT|INTERRES
     7    4    9 1    
     8    4    5 1    
     9    5    6 1    
    10    5   32 1    
    11    5   33 1    
    12    6    7 1    
    13    6   34 1    
    14    6   35 1    
    15    7    8 1    
    16    7   10 1    
    17    7   36 1    
    18    8    9 1    
    19    8   37 1    
    20    8   38 1    
    21    9   39 1    
    22    9   40 1    
    23   10   18 ar   
    24   10   11 ar   
    25   11   12 ar   
    26   11   41 1    
    27   12   17 ar   
    28   12   13 ar   
    29   13   14 ar   
    30   13   19 1    
    31   14   15 ar   
    32   14   42 1    
    33   15   16 ar   
    34   15   43 1    
    35   16   17 ar   
    36   17   18 ar   
    37   18   28 1    
    38   19   24 ar   
    39   19   20 ar   
    40   20   21 ar   
    41   20   44 1    
    42   21   22 ar   
    43   21   45 1    
    44   22   23 ar   
    45   22   27 1    
    46   23   24 ar   
    47   23   46 1    
    48   24   25 1    
    49   25   26 1    
    50   26   47 1    
    51   26   48 1    
    52   26   49 1    
@<TRIPOS>SUBSTRUCTURE
     1 UNK         1 GROUP             0       ****    0 ROOT    
