/home/yujie/leadopt/data/result/selection/CDK9/lig_28.sdf:1
                    3D
 Schrodinger Suite 2020-3.
 68 72  0  0  1  0            999 V2000
  -49.3818  -45.5203   -0.3677 C   0  0  0  0  0  0
  -48.6120  -45.8281   -1.5737 N   0  0  0  0  0  0
  -48.6984  -47.2359   -1.9770 C   0  0  0  0  0  0
  -47.8394  -44.9446   -2.2581 C   0  0  0  0  0  0
  -47.3473  -45.2310   -3.3488 O   0  0  0  0  0  0
  -47.5547  -43.5450   -1.6587 C   0  0  0  0  0  0
  -46.0923  -43.0934   -1.9542 N   0  3  2  0  0  0
  -45.6525  -42.0318   -0.9084 C   0  0  0  0  0  0
  -44.1838  -41.6343   -1.1578 C   0  0  0  0  0  0
  -43.9763  -41.1021   -2.5941 C   0  0  2  0  0  0
  -44.4226  -42.1991   -3.5898 C   0  0  0  0  0  0
  -45.9096  -42.5332   -3.3898 C   0  0  0  0  0  0
  -42.5573  -40.6127   -2.8261 C   0  0  0  0  0  0
  -42.0340  -39.3466   -3.0579 C   0  0  0  0  0  0
  -40.6012  -39.4614   -3.1780 C   0  0  0  0  0  0
  -39.5005  -38.5965   -3.4066 C   0  0  0  0  0  0
  -38.2306  -39.1951   -3.4567 C   0  0  0  0  0  0
  -38.0892  -40.5734   -3.2914 C   0  0  0  0  0  0
  -39.1189  -41.4299   -3.0836 N   0  0  0  0  0  0
  -40.3184  -40.8477   -3.0419 C   0  0  0  0  0  0
  -41.5059  -41.4935   -2.8185 N   0  0  0  0  0  0
  -39.6332  -37.1300   -3.6047 C   0  0  0  0  0  0
  -38.7420  -36.4111   -4.5061 C   0  0  0  0  0  0
  -38.8289  -35.0715   -4.6284 C   0  0  0  0  0  0
  -39.7439  -34.2632   -3.8350 C   0  0  0  0  0  0
  -39.6306  -33.0363   -3.8941 O   0  0  0  0  0  0
  -40.6558  -34.9677   -3.0572 N   0  0  0  0  0  0
  -40.5326  -36.3511   -2.9556 C   0  0  0  0  0  0
  -41.5917  -34.1206   -2.2538 C   0  0  0  0  0  0
  -42.7186  -33.4733   -3.1026 C   0  0  0  0  0  0
  -43.8721  -34.4469   -3.4022 C   0  0  0  0  0  0
  -44.4376  -34.8734   -2.1664 O   0  0  0  0  0  0
  -43.5357  -35.6151   -1.3480 C   0  0  0  0  0  0
  -42.2720  -34.7821   -1.0189 C   0  0  0  0  0  0
  -41.6305  -42.4863   -2.6563 H   0  0  0  0  0  0
  -48.9142  -45.9746    0.5068 H   0  0  0  0  0  0
  -50.3871  -45.9326   -0.4569 H   0  0  0  0  0  0
  -49.5051  -44.4530   -0.1800 H   0  0  0  0  0  0
  -49.7220  -47.4953   -2.2433 H   0  0  0  0  0  0
  -48.0570  -47.4838   -2.8263 H   0  0  0  0  0  0
  -48.3865  -47.8805   -1.1551 H   0  0  0  0  0  0
  -48.2124  -42.7761   -2.0665 H   0  0  0  0  0  0
  -47.6473  -43.5457   -0.5728 H   0  0  0  0  0  0
  -46.3324  -41.1807   -0.9955 H   0  0  0  0  0  0
  -45.7808  -42.4685    0.0815 H   0  0  0  0  0  0
  -43.9255  -40.8605   -0.4341 H   0  0  0  0  0  0
  -43.5560  -42.5081   -0.9693 H   0  0  0  0  0  0
  -44.6452  -40.2497   -2.7323 H   0  0  0  0  0  0
  -43.8344  -43.1092   -3.4552 H   0  0  0  0  0  0
  -44.3056  -41.8885   -4.6267 H   0  0  0  0  0  0
  -46.2274  -43.2820   -4.1123 H   0  0  0  0  0  0
  -46.5527  -41.6560   -3.4892 H   0  0  0  0  0  0
  -42.6292  -38.4508   -3.1301 H   0  0  0  0  0  0
  -37.3442  -38.5954   -3.6108 H   0  0  0  0  0  0
  -37.1086  -41.0265   -3.3243 H   0  0  0  0  0  0
  -38.0308  -36.9525   -5.1129 H   0  0  0  0  0  0
  -38.1735  -34.5571   -5.3137 H   0  0  0  0  0  0
  -41.1918  -36.7723   -2.2183 H   0  0  0  0  0  0
  -40.9920  -33.2990   -1.8570 H   0  0  0  0  0  0
  -43.1149  -32.6136   -2.5586 H   0  0  0  0  0  0
  -42.3266  -33.0511   -4.0275 H   0  0  0  0  0  0
  -44.6455  -33.9475   -3.9851 H   0  0  0  0  0  0
  -43.5351  -35.2995   -3.9941 H   0  0  0  0  0  0
  -44.0489  -35.8820   -0.4241 H   0  0  0  0  0  0
  -43.2952  -36.5571   -1.8368 H   0  0  0  0  0  0
  -41.5561  -35.3657   -0.4413 H   0  0  0  0  0  0
  -42.5637  -33.9809   -0.3376 H   0  0  0  0  0  0
  -45.5034  -43.9216   -1.8556 H   0  0  0  0  0  0
  1  2  1  0  0  0
  1 36  1  0  0  0
  1 37  1  0  0  0
  1 38  1  0  0  0
  2  3  1  0  0  0
  2  4  1  0  0  0
  3 39  1  0  0  0
  3 40  1  0  0  0
  3 41  1  0  0  0
  4  5  2  0  0  0
  4  6  1  0  0  0
  6  7  1  0  0  0
  6 42  1  0  0  0
  6 43  1  0  0  0
  7 12  1  0  0  0
  7  8  1  0  0  0
  7 68  1  0  0  0
  8  9  1  0  0  0
  8 44  1  0  0  0
  8 45  1  0  0  0
  9 10  1  0  0  0
  9 46  1  0  0  0
  9 47  1  0  0  0
 10 11  1  0  0  0
 10 13  1  0  0  0
 10 48  1  0  0  0
 11 12  1  0  0  0
 11 49  1  0  0  0
 11 50  1  0  0  0
 12 51  1  0  0  0
 12 52  1  0  0  0
 13 21  1  0  0  0
 13 14  2  0  0  0
 14 15  1  0  0  0
 14 53  1  0  0  0
 15 20  2  0  0  0
 15 16  1  0  0  0
 16 17  2  0  0  0
 16 22  1  0  0  0
 17 18  1  0  0  0
 17 54  1  0  0  0
 18 19  2  0  0  0
 18 55  1  0  0  0
 19 20  1  0  0  0
 20 21  1  0  0  0
 21 35  1  0  0  0
 22 28  2  0  0  0
 22 23  1  0  0  0
 23 24  2  0  0  0
 23 56  1  0  0  0
 24 25  1  0  0  0
 24 57  1  0  0  0
 25 26  2  0  0  0
 25 27  1  0  0  0
 27 28  1  0  0  0
 27 29  1  0  0  0
 28 58  1  0  0  0
 29 34  1  0  0  0
 29 30  1  0  0  0
 29 59  1  0  0  0
 30 31  1  0  0  0
 30 60  1  0  0  0
 30 61  1  0  0  0
 31 32  1  0  0  0
 31 62  1  0  0  0
 31 63  1  0  0  0
 32 33  1  0  0  0
 33 34  1  0  0  0
 33 64  1  0  0  0
 33 65  1  0  0  0
 34 66  1  0  0  0
 34 67  1  0  0  0
M  CHG  1   7   1
M  END
> <s_m_source_file>
/home/yujie/leadopt/data/result/selection/CDK9/lig_28.sdf

> <i_m_source_file_index>
1

> <i_lp_mmshare_version>
51139

> <i_f3d_flags>
0

> <s_epik_input>
W0NIM11OKFtDSDNdKUMoPU8pW0NIMl1OMVtDSDJdW0NIMl1bQ0hdKFtDSDJdW0NIMl0xKWMoW2NIXTIpW25IXWMoYzIzKW5bY0hdW2NIXWMzLWM0W2NIXVtjSF1jKD1PKW4oW2NIXTQpW0NIXTVbQ0gyXVtDSDJdT1tDSDJdW0NIMl01

> <s_epik_cmdline>
J2VwaWtfcHl0aG9uJywgJy1waHQnLCAnMi4wJywgJy1waCcsICc3LjAnLCAnLXRuJywgJzgnLCAnLW1hJywgJzIwMCcsICctaW1hZScsICc8aW5maWxlLm1hZT4nLCAnLW9tYWUnLCAnPG91dGZpbGUubWFlPic=

> <r_lp_tautomer_probability>
0.999998

> <r_epik_Ionization_Penalty>
  0.0792

> <r_epik_Ionization_Penalty_Charging>
  0.0781

> <r_epik_Ionization_Penalty_Neutral>
  0.0011

> <r_epik_State_Penalty>
  0.0690

> <r_epik_Charging_Adjusted_Penalty>
0.147046

> <i_epik_Tot_Q>
1

> <i_epik_Tot_abs_Q>
1

> <s_lp_Force_Field>
OPLS3e

> <r_lp_Energy>
71.8487

> <b_lp_Chiralities_Consistent>
1

> <s_lp_Variant>
/home/yujie/leadopt/data/result/selection/CDK9/lig_28.sdf:1-1

> <s_i_glide_gridfile>
glide-grid_CDK9

> <i_i_glide_lignum>
1

> <i_i_glide_rotatable_bonds>
6

> <r_i_docking_score>
-9.30332280150294

> <r_i_glide_ligand_efficiency>
-0.273627141220675

> <r_i_glide_ligand_efficiency_sa>
-0.886445714806342

> <r_i_glide_ligand_efficiency_ln>
-2.05536495621764

> <r_i_glide_gscore>
-9.37230500150294

> <r_i_glide_lipo>
-2.9758736557785

> <r_i_glide_hbond>
-0.744758552539031

> <r_i_glide_metal>
-0

> <r_i_glide_rewards>
-1.82850174389945

> <r_i_glide_evdw>
-49.1285972595215

> <r_i_glide_ecoul>
-10.6397275924683

> <r_i_glide_erotb>
0.326925177529186

> <r_i_glide_esite>
-0.0977072249688258

> <r_i_glide_emodel>
-96.5253157074666

> <r_i_glide_energy>
-59.7683248519897

> <r_i_glide_einternal>
3.26728010177612

> <i_i_glide_confnum>
152

> <i_i_glide_posenum>
367

> <r_i_glide_eff_state_penalty>
0.0689822

$$$$
