@<TRIPOS>MOLECULE
/home/yujie/leadopt/data/result/selection/CDK9/lig_12.sdf:1
57   61    1
SMALL
USER_CHARGES


@<TRIPOS>ATOM
      1 C1        -41.0465  -36.5762    0.1253 C.3       1 UNK         0.0000 
      2 O2        -40.4301  -37.2124   -0.9943 O.3       1 UNK         0.0000 
      3 C3        -40.1502  -36.4947   -2.1434 C.ar      1 UNK         0.0000 
      4 C4        -40.4033  -35.1261   -2.2482 C.ar      1 UNK         0.0000 
      5 C5        -40.2351  -34.4397   -3.4527 C.ar      1 UNK         0.0000 
      6 C6        -39.6282  -35.1106   -4.5199 C.ar      1 UNK         0.0000 
      7 C7        -39.3056  -36.4587   -4.4160 C.ar      1 UNK         0.0000 
      8 C8        -39.6150  -37.1704   -3.2548 C.ar      1 UNK         0.0000 
      9 C9        -39.4379  -38.6369   -3.2501 C.ar      1 UNK         0.0000 
     10 C10       -38.1885  -39.2353   -3.4567 C.ar      1 UNK         0.0000 
     11 C11       -38.0806  -40.6268   -3.4428 C.ar      1 UNK         0.0000 
     12 N12       -39.1202  -41.4774   -3.2352 N.ar      1 UNK         0.0000 
     13 C13       -40.2995  -40.8796   -3.0566 C.ar      1 UNK         0.0000 
     14 C14       -40.5446  -39.4871   -3.0584 C.ar      1 UNK         0.0000 
     15 C15       -41.9574  -39.3244   -2.8502 C.ar      1 UNK         0.0000 
     16 C16       -42.5110  -40.5803   -2.6549 C.ar      1 UNK         0.0000 
     17 N17       -41.4939  -41.4936   -2.7865 N.pl3     1 UNK         0.0000 
     18 C18       -43.9183  -41.0390   -2.3134 C.3       1 UNK         0.0000 
     19 C19       -44.9965  -39.9262   -2.2706 C.3       1 UNK         0.0000 
     20 C20       -46.4263  -40.4720   -2.0849 C.3       1 UNK         0.0000 
     21 O21       -46.6742  -41.5250   -3.0101 O.3       1 UNK         0.0000 
     22 C22       -45.8725  -42.6719   -2.7540 C.3       1 UNK         0.0000 
     23 C23       -44.3870  -42.3487   -3.0023 C.3       1 UNK         0.0000 
     24 C24       -40.6844  -33.0097   -3.6377 C.2       1 UNK         0.0000 
     25 O25       -40.0295  -32.2924   -4.3873 O.2       1 UNK         0.0000 
     26 N26       -41.8172  -32.5476   -3.0563 N.am      1 UNK         0.0000 
     27 C27       -42.2725  -31.1763   -3.3220 C.3       1 UNK         0.0000 
     28 C28       -43.3185  -30.9604   -2.2457 C.3       1 UNK         0.0000 
     29 C29       -43.8924  -32.3541   -2.0104 C.3       1 UNK         0.0000 
     30 C30       -42.6689  -33.2366   -2.0762 C.3       1 UNK         0.0000 
     31 H31       -41.6433  -42.4894   -2.6582 H         1 UNK         0.0000 
     32 H32       -41.1897  -37.3033    0.9231 H         1 UNK         0.0000 
     33 H33       -40.4280  -35.7735    0.5290 H         1 UNK         0.0000 
     34 H34       -42.0284  -36.1755   -0.1314 H         1 UNK         0.0000 
     35 H35       -40.7583  -34.6035   -1.3816 H         1 UNK         0.0000 
     36 H36       -39.4452  -34.6045   -5.4566 H         1 UNK         0.0000 
     37 H37       -38.8823  -36.9684   -5.2698 H         1 UNK         0.0000 
     38 H38       -37.3100  -38.6258   -3.6174 H         1 UNK         0.0000 
     39 H39       -37.1183  -41.0917   -3.5962 H         1 UNK         0.0000 
     40 H40       -42.5044  -38.3950   -2.7950 H         1 UNK         0.0000 
     41 H41       -43.9382  -41.3593   -1.2686 H         1 UNK         0.0000 
     42 H42       -44.7959  -39.2148   -1.4674 H         1 UNK         0.0000 
     43 H43       -45.0035  -39.4042   -3.2293 H         1 UNK         0.0000 
     44 H44       -46.5797  -40.8177   -1.0596 H         1 UNK         0.0000 
     45 H45       -47.1560  -39.6787   -2.2498 H         1 UNK         0.0000 
     46 H46       -46.0249  -43.0283   -1.7324 H         1 UNK         0.0000 
     47 H47       -46.1960  -43.4822   -3.4084 H         1 UNK         0.0000 
     48 H48       -44.2874  -42.2326   -4.0822 H         1 UNK         0.0000 
     49 H49       -43.7977  -43.2053   -2.6708 H         1 UNK         0.0000 
     50 H50       -42.7404  -31.1178   -4.3062 H         1 UNK         0.0000 
     51 H51       -41.4736  -30.4409   -3.2081 H         1 UNK         0.0000 
     52 H52       -44.0291  -30.1906   -2.5324 H         1 UNK         0.0000 
     53 H53       -42.8297  -30.5943   -1.3420 H         1 UNK         0.0000 
     54 H54       -44.4320  -32.4558   -1.0686 H         1 UNK         0.0000 
     55 H55       -44.5481  -32.6934   -2.8131 H         1 UNK         0.0000 
     56 H56       -42.1924  -33.2128   -1.0949 H         1 UNK         0.0000 
     57 H57       -42.9280  -34.2548   -2.3700 H         1 UNK         0.0000 
@<TRIPOS>BOND
     1    1    2 1    
     2    1   32 1    
     3    1   33 1    
     4    1   34 1    
     5    2    3 1    
     6    3    8 ar   
     7    3    4 ar   
     8    4    5 ar   
     9    4   35 1    
    10    5    6 ar   
    11    5   24 1    
    12    6    7 ar   
    13    6   36 1    
    14    7    8 ar   
    15    7   37 1    
    16    8    9 1    
    17    9   14 ar   
    18    9   10 ar   
    19   10   11 ar   
    20   10   38 1    
    21   11   12 ar   
    22   11   39 1    
    23   12   13 ar   
    24   13   17 ar   
    25   13   14 ar   
    26   14   15 ar   
    27   15   16 ar   
    28   15   40 1    
    29   16   17 ar   
    30   16   18 1    
    31   17   31 1    
    32   18   23 1    
    33   18   19 1    
    34   18   41 1    
    35   19   20 1    
    36   19   42 1    
    37   19   43 1    
    38   20   21 1    
    39   20   44 1    
    40   20   45 1    
    41   21   22 1    
    42   22   23 1    
    43   22   46 1    
    44   22   47 1    
    45   23   48 1    
    46   23   49 1    
    47   24   25 2    
    48   24   26 am   BACKBONE|DICT|INTERRES
    49   26   30 1    
    50   26   27 1    
    51   27   28 1    
    52   27   50 1    
    53   27   51 1    
    54   28   29 1    
    55   28   52 1    
    56   28   53 1    
    57   29   30 1    
    58   29   54 1    
    59   29   55 1    
    60   30   56 1    
    61   30   57 1    
@<TRIPOS>SUBSTRUCTURE
     1 UNK         1 GROUP             0       ****    0 ROOT    
