@<TRIPOS>MOLECULE
/home/yujie/leadopt/data/result/selection/CDK9/lig_39.sdf:1
67   71    1
SMALL
USER_CHARGES


@<TRIPOS>ATOM
      1 C1        -42.0566  -34.7709   -0.8420 C.3       1 UNK         0.0000 
      2 C2        -41.5614  -34.1673   -2.1761 C.3       1 UNK         0.0000 
      3 C3        -42.7504  -33.7452   -3.0649 C.3       1 UNK         0.0000 
      4 N4        -40.5713  -34.9841   -2.9304 N.pl3     1 UNK         0.0000 
      5 C5        -40.4777  -36.3685   -2.8470 C.ar      1 UNK         0.0000 
      6 C6        -39.5609  -37.1558   -3.4628 C.ar      1 UNK         0.0000 
      7 C7        -38.5933  -36.4262   -4.2781 C.ar      1 UNK         0.0000 
      8 C8        -38.6595  -35.0829   -4.3831 C.ar      1 UNK         0.0000 
      9 C9        -39.6604  -34.2762   -3.7000 C.ar      1 UNK         0.0000 
     10 O10       -39.6302  -33.0539   -3.8573 O.2       1 UNK         0.0000 
     11 C11       -39.5003  -38.6372   -3.3334 C.ar      1 UNK         0.0000 
     12 C12       -38.2649  -39.2969   -3.4566 C.ar      1 UNK         0.0000 
     13 C13       -38.1861  -40.6855   -3.3709 C.ar      1 UNK         0.0000 
     14 N14       -39.2523  -41.4936   -3.1620 N.ar      1 UNK         0.0000 
     15 C15       -40.4212  -40.8701   -3.0318 C.ar      1 UNK         0.0000 
     16 C16       -40.6327  -39.4642   -3.0941 C.ar      1 UNK         0.0000 
     17 C17       -42.0478  -39.2904   -2.8990 C.ar      1 UNK         0.0000 
     18 C18       -42.6212  -40.5322   -2.6561 C.ar      1 UNK         0.0000 
     19 N19       -41.6304  -41.4786   -2.7778 N.pl3     1 UNK         0.0000 
     20 C20       -44.0532  -40.9064   -2.3207 C.3       1 UNK         0.0000 
     21 C21       -44.8456  -41.4182   -3.5336 C.3       1 UNK         0.0000 
     22 C22       -46.3225  -41.7303   -3.2224 C.3       1 UNK         0.0000 
     23 N23       -46.4101  -42.6945   -2.0155 N.4       1 UNK         0.0000 
     24 C24       -45.7158  -42.0512   -0.7920 C.3       1 UNK         0.0000 
     25 C25       -44.2215  -41.8542   -1.1152 C.3       1 UNK         0.0000 
     26 C26       -47.8949  -43.0387   -1.7024 C.3       1 UNK         0.0000 
     27 C27       -47.9575  -44.4765   -1.1535 C.2       1 UNK         0.0000 
     28 O28       -47.6367  -44.6627    0.0216 O.2       1 UNK         0.0000 
     29 N29       -48.3388  -45.4877   -1.9691 N.am      1 UNK         0.0000 
     30 C30       -48.3105  -46.8893   -1.5316 C.3       1 UNK         0.0000 
     31 C31       -48.9712  -47.6287   -2.6929 C.3       1 UNK         0.0000 
     32 C32       -48.6429  -46.7782   -3.9049 C.3       1 UNK         0.0000 
     33 C33       -48.6982  -45.3432   -3.3864 C.3       1 UNK         0.0000 
     34 H34       -41.7948  -42.4724   -2.6533 H         1 UNK         0.0000 
     35 H35       -42.6858  -34.0532   -0.3143 H         1 UNK         0.0000 
     36 H36       -42.6731  -35.6581   -0.9876 H         1 UNK         0.0000 
     37 H37       -41.2313  -35.0140   -0.1722 H         1 UNK         0.0000 
     38 H38       -41.0675  -33.2393   -1.8761 H         1 UNK         0.0000 
     39 H39       -43.4984  -33.2090   -2.4810 H         1 UNK         0.0000 
     40 H40       -42.4412  -33.0617   -3.8563 H         1 UNK         0.0000 
     41 H41       -43.2495  -34.6059   -3.5085 H         1 UNK         0.0000 
     42 H42       -41.2310  -36.7797   -2.1981 H         1 UNK         0.0000 
     43 H43       -37.8286  -36.9539   -4.8248 H         1 UNK         0.0000 
     44 H44       -37.9411  -34.5667   -5.0015 H         1 UNK         0.0000 
     45 H45       -37.3549  -38.7399   -3.6142 H         1 UNK         0.0000 
     46 H46       -37.2297  -41.1780   -3.4645 H         1 UNK         0.0000 
     47 H47       -42.6048  -38.3664   -2.9030 H         1 UNK         0.0000 
     48 H48       -44.5651  -39.9923   -2.0108 H         1 UNK         0.0000 
     49 H49       -44.3838  -42.3148   -3.9513 H         1 UNK         0.0000 
     50 H50       -44.8596  -40.6151   -4.2577 H         1 UNK         0.0000 
     51 H51       -46.8102  -42.2178   -4.0695 H         1 UNK         0.0000 
     52 H52       -46.8836  -40.8298   -2.9591 H         1 UNK         0.0000 
     53 H53       -46.2197  -41.0933   -0.6536 H         1 UNK         0.0000 
     54 H54       -45.8935  -42.6917    0.0729 H         1 UNK         0.0000 
     55 H55       -43.7536  -41.4116   -0.2409 H         1 UNK         0.0000 
     56 H56       -43.7698  -42.8296   -1.3050 H         1 UNK         0.0000 
     57 H57       -48.4639  -42.9247   -2.6248 H         1 UNK         0.0000 
     58 H58       -48.2755  -42.3052   -0.9867 H         1 UNK         0.0000 
     59 H59       -48.8465  -47.0454   -0.5933 H         1 UNK         0.0000 
     60 H60       -47.2712  -47.2128   -1.4306 H         1 UNK         0.0000 
     61 H61       -50.0506  -47.6645   -2.5430 H         1 UNK         0.0000 
     62 H62       -48.6223  -48.6586   -2.7776 H         1 UNK         0.0000 
     63 H63       -47.6310  -47.0016   -4.2513 H         1 UNK         0.0000 
     64 H64       -49.3093  -46.9468   -4.7495 H         1 UNK         0.0000 
     65 H65       -47.9875  -44.7353   -3.9469 H         1 UNK         0.0000 
     66 H66       -49.7208  -44.9691   -3.4776 H         1 UNK         0.0000 
     67 H67       -45.9228  -43.5540   -2.2473 H         1 UNK         0.0000 
@<TRIPOS>BOND
     1    1    2 1    
     2    1   35 1    
     3    1   36 1    
     4    1   37 1    
     5    2    3 1    
     6    2    4 1    
     7    2   38 1    
     8    3   39 1    
     9    3   40 1    
    10    3   41 1    
    11    4    9 ar   
    12    4    5 ar   
    13    5    6 ar   
    14    5   42 1    
    15    6    7 ar   
    16    6   11 1    
    17    7    8 ar   
    18    7   43 1    
    19    8    9 ar   
    20    8   44 1    
    21    9   10 2    
    22   11   16 ar   
    23   11   12 ar   
    24   12   13 ar   
    25   12   45 1    
    26   13   14 ar   
    27   13   46 1    
    28   14   15 ar   
    29   15   19 ar   
    30   15   16 ar   
    31   16   17 ar   
    32   17   18 ar   
    33   17   47 1    
    34   18   19 ar   
    35   18   20 1    
    36   19   34 1    
    37   20   25 1    
    38   20   21 1    
    39   20   48 1    
    40   21   22 1    
    41   21   49 1    
    42   21   50 1    
    43   22   23 1    
    44   22   51 1    
    45   22   52 1    
    46   23   24 1    
    47   23   26 1    
    48   23   67 1    
    49   24   25 1    
    50   24   53 1    
    51   24   54 1    
    52   25   55 1    
    53   25   56 1    
    54   26   27 1    
    55   26   57 1    
    56   26   58 1    
    57   27   28 2    
    58   27   29 am   BACKBONE|DICT|INTERRES
    59   29   33 1    
    60   29   30 1    
    61   30   31 1    
    62   30   59 1    
    63   30   60 1    
    64   31   32 1    
    65   31   61 1    
    66   31   62 1    
    67   32   33 1    
    68   32   63 1    
    69   32   64 1    
    70   33   65 1    
    71   33   66 1    
@<TRIPOS>SUBSTRUCTURE
     1 UNK         1 GROUP             0       ****    0 ROOT    
