@<TRIPOS>MOLECULE
/home/yujie/leadopt/data/result/selection/CDK9/lig_8.sdf:1
45   48    1
SMALL
USER_CHARGES


@<TRIPOS>ATOM
      1 C1        -41.2776  -36.2694   -0.2575 C.3       1 UNK         0.0000 
      2 O2        -40.7197  -37.0216   -1.3328 O.3       1 UNK         0.0000 
      3 C3        -40.1820  -36.3670   -2.4269 C.ar      1 UNK         0.0000 
      4 C4        -40.2228  -34.9686   -2.5814 C.ar      1 UNK         0.0000 
      5 C5        -39.6175  -34.3540   -3.6740 C.ar      1 UNK         0.0000 
      6 C6        -38.9634  -35.1218   -4.6257 C.ar      1 UNK         0.0000 
      7 C7        -38.9308  -36.5067   -4.5008 C.ar      1 UNK         0.0000 
      8 C8        -39.5396  -37.1462   -3.4119 C.ar      1 UNK         0.0000 
      9 C9        -39.4365  -38.6286   -3.3116 C.ar      1 UNK         0.0000 
     10 C10       -38.1813  -39.2479   -3.3891 C.ar      1 UNK         0.0000 
     11 C11       -38.0740  -40.6331   -3.2881 C.ar      1 UNK         0.0000 
     12 N12       -39.1260  -41.4753   -3.1204 N.ar      1 UNK         0.0000 
     13 C13       -40.3163  -40.8730   -3.0562 C.ar      1 UNK         0.0000 
     14 C14       -40.5594  -39.4758   -3.1443 C.ar      1 UNK         0.0000 
     15 C15       -41.9842  -39.3220   -3.0288 C.ar      1 UNK         0.0000 
     16 C16       -42.5521  -40.5740   -2.8019 C.ar      1 UNK         0.0000 
     17 N17       -41.5268  -41.4935   -2.8547 N.pl3     1 UNK         0.0000 
     18 C18       -43.9998  -41.0061   -2.5619 C.3       1 UNK         0.0000 
     19 C19       -44.1591  -42.2304   -1.6198 C.3       1 UNK         0.0000 
     20 C20       -45.6253  -42.6937   -1.5010 C.3       1 UNK         0.0000 
     21 N21       -46.5186  -41.5177   -1.0569 N.4       1 UNK         0.0000 
     22 C22       -46.3836  -40.2759   -1.9582 C.3       1 UNK         0.0000 
     23 C23       -44.9030  -39.8562   -2.0577 C.3       1 UNK         0.0000 
     24 F24       -39.6483  -33.0105   -3.8135 F         1 UNK         0.0000 
     25 H25       -41.6732  -42.4866   -2.7080 H         1 UNK         0.0000 
     26 H26       -41.6111  -36.9527    0.5231 H         1 UNK         0.0000 
     27 H27       -40.5422  -35.5971    0.1856 H         1 UNK         0.0000 
     28 H28       -42.1441  -35.6904   -0.5768 H         1 UNK         0.0000 
     29 H29       -40.7084  -34.3334   -1.8566 H         1 UNK         0.0000 
     30 H30       -38.4749  -34.6420   -5.4565 H         1 UNK         0.0000 
     31 H31       -38.4194  -37.0883   -5.2540 H         1 UNK         0.0000 
     32 H32       -37.2856  -38.6537   -3.5079 H         1 UNK         0.0000 
     33 H33       -37.0984  -41.0912   -3.3362 H         1 UNK         0.0000 
     34 H34       -42.5299  -38.3903   -3.0580 H         1 UNK         0.0000 
     35 H35       -44.4110  -41.3133   -3.5241 H         1 UNK         0.0000 
     36 H36       -43.6166  -43.0919   -2.0141 H         1 UNK         0.0000 
     37 H37       -43.7810  -42.0025   -0.6221 H         1 UNK         0.0000 
     38 H38       -46.0245  -43.0376   -2.4569 H         1 UNK         0.0000 
     39 H39       -45.7586  -43.4901   -0.7657 H         1 UNK         0.0000 
     40 H40       -47.4841  -41.8176   -1.0385 H         1 UNK         0.0000 
     41 H41       -46.8054  -40.5495   -2.9266 H         1 UNK         0.0000 
     42 H42       -47.0078  -39.5022   -1.5033 H         1 UNK         0.0000 
     43 H43       -44.5714  -39.5053   -1.0782 H         1 UNK         0.0000 
     44 H44       -44.8686  -39.0204   -2.7572 H         1 UNK         0.0000 
     45 H45       -46.3376  -41.2624   -0.0854 H         1 UNK         0.0000 
@<TRIPOS>BOND
     1    1    2 1    
     2    1   26 1    
     3    1   27 1    
     4    1   28 1    
     5    2    3 1    
     6    3    8 ar   
     7    3    4 ar   
     8    4    5 ar   
     9    4   29 1    
    10    5    6 ar   
    11    5   24 1    
    12    6    7 ar   
    13    6   30 1    
    14    7    8 ar   
    15    7   31 1    
    16    8    9 1    
    17    9   14 ar   
    18    9   10 ar   
    19   10   11 ar   
    20   10   32 1    
    21   11   12 ar   
    22   11   33 1    
    23   12   13 ar   
    24   13   17 ar   
    25   13   14 ar   
    26   14   15 ar   
    27   15   16 ar   
    28   15   34 1    
    29   16   17 ar   
    30   16   18 1    
    31   17   25 1    
    32   18   23 1    
    33   18   19 1    
    34   18   35 1    
    35   19   20 1    
    36   19   36 1    
    37   19   37 1    
    38   20   21 1    
    39   20   38 1    
    40   20   39 1    
    41   21   22 1    
    42   21   40 1    
    43   21   45 1    
    44   22   23 1    
    45   22   41 1    
    46   22   42 1    
    47   23   43 1    
    48   23   44 1    
@<TRIPOS>SUBSTRUCTURE
     1 UNK         1 GROUP             0       ****    0 ROOT    
