/home/yujie/leadopt/data/result/selection/CDK9/lig_9.sdf:1
                    3D
 Schrodinger Suite 2020-3.
 59 63  0  0  1  0            999 V2000
  -41.0440  -36.5678    0.1247 C   0  0  0  0  0  0
  -40.4296  -37.2059   -0.9947 O   0  0  0  0  0  0
  -40.1532  -36.4901   -2.1455 C   0  0  0  0  0  0
  -40.4027  -35.1208   -2.2527 C   0  0  0  0  0  0
  -40.2318  -34.4364   -3.4587 C   0  0  0  0  0  0
  -39.6257  -35.1131   -4.5225 C   0  0  0  0  0  0
  -39.3079  -36.4622   -4.4169 C   0  0  0  0  0  0
  -39.6197  -37.1699   -3.2538 C   0  0  0  0  0  0
  -39.4360  -38.6340   -3.2300 C   0  0  0  0  0  0
  -38.1677  -39.2219   -3.3308 C   0  0  0  0  0  0
  -38.0442  -40.6109   -3.2490 C   0  0  0  0  0  0
  -39.0870  -41.4653   -3.0807 N   0  0  0  0  0  0
  -40.2833  -40.8757   -3.0220 C   0  0  0  0  0  0
  -40.5473  -39.4898   -3.0931 C   0  0  0  0  0  0
  -41.9788  -39.3435   -2.9939 C   0  0  0  0  0  0
  -42.5269  -40.6027   -2.7947 C   0  0  0  0  0  0
  -41.4856  -41.4938   -2.8125 N   0  0  0  0  0  0
  -43.9492  -41.0906   -2.5616 C   0  0  0  0  0  0
  -44.3667  -42.2284   -3.5274 C   0  0  0  0  0  0
  -45.8278  -42.6734   -3.3101 C   0  0  0  0  0  0
  -46.0282  -43.0931   -1.8405 N   0  3  0  0  0  0
  -45.6340  -41.9738   -0.8554 C   0  0  0  0  0  0
  -44.1710  -41.5573   -1.1047 C   0  0  0  0  0  0
  -40.6781  -33.0048   -3.6507 C   0  0  0  0  0  0
  -40.0295  -32.2934   -4.4131 O   0  0  0  0  0  0
  -41.8009  -32.5341   -3.0566 N   0  0  0  0  0  0
  -42.6500  -33.2183   -2.0700 C   0  0  0  0  0  0
  -43.8771  -32.3420   -2.0122 C   0  0  0  0  0  0
  -43.3119  -30.9470   -2.2572 C   0  0  0  0  0  0
  -42.2594  -31.1649   -3.3275 C   0  0  0  0  0  0
  -41.6282  -42.4871   -2.6599 H   0  0  0  0  0  0
  -41.1853  -37.2938    0.9249 H   0  0  0  0  0  0
  -40.4255  -35.7647    0.5275 H   0  0  0  0  0  0
  -42.0277  -36.1686   -0.1276 H   0  0  0  0  0  0
  -40.7539  -34.5964   -1.3860 H   0  0  0  0  0  0
  -39.4369  -34.6074   -5.4574 H   0  0  0  0  0  0
  -38.8820  -36.9748   -5.2686 H   0  0  0  0  0  0
  -37.2871  -38.6062   -3.4462 H   0  0  0  0  0  0
  -37.0695  -41.0750   -3.3053 H   0  0  0  0  0  0
  -42.5418  -38.4220   -3.0164 H   0  0  0  0  0  0
  -44.6362  -40.2586   -2.7331 H   0  0  0  0  0  0
  -44.2786  -41.8939   -4.5612 H   0  0  0  0  0  0
  -43.7284  -43.1033   -3.3887 H   0  0  0  0  0  0
  -46.5407  -41.8692   -3.5034 H   0  0  0  0  0  0
  -46.0944  -43.5419   -3.9141 H   0  0  0  0  0  0
  -46.9962  -43.3424   -1.6872 H   0  0  0  0  0  0
  -46.3348  -41.1500   -1.0093 H   0  0  0  0  0  0
  -45.7972  -42.3738    0.1433 H   0  0  0  0  0  0
  -43.5276  -42.4071   -0.8677 H   0  0  0  0  0  0
  -43.9356  -40.7453   -0.4157 H   0  0  0  0  0  0
  -42.1739  -33.1827   -1.0882 H   0  0  0  0  0  0
  -42.9071  -34.2394   -2.3547 H   0  0  0  0  0  0
  -44.4169  -32.4405   -1.0704 H   0  0  0  0  0  0
  -44.5293  -32.6935   -2.8133 H   0  0  0  0  0  0
  -44.0294  -30.1860   -2.5521 H   0  0  0  0  0  0
  -42.8300  -30.5696   -1.3549 H   0  0  0  0  0  0
  -42.7211  -31.1091   -4.3151 H   0  0  0  0  0  0
  -41.4612  -30.4286   -3.2124 H   0  0  0  0  0  0
  -45.4944  -43.9414   -1.6542 H   0  0  0  0  0  0
  1  2  1  0  0  0
  1 32  1  0  0  0
  1 33  1  0  0  0
  1 34  1  0  0  0
  2  3  1  0  0  0
  3  8  1  0  0  0
  3  4  2  0  0  0
  4  5  1  0  0  0
  4 35  1  0  0  0
  5  6  2  0  0  0
  5 24  1  0  0  0
  6  7  1  0  0  0
  6 36  1  0  0  0
  7  8  2  0  0  0
  7 37  1  0  0  0
  8  9  1  0  0  0
  9 14  1  0  0  0
  9 10  2  0  0  0
 10 11  1  0  0  0
 10 38  1  0  0  0
 11 12  2  0  0  0
 11 39  1  0  0  0
 12 13  1  0  0  0
 13 17  1  0  0  0
 13 14  2  0  0  0
 14 15  1  0  0  0
 15 16  2  0  0  0
 15 40  1  0  0  0
 16 17  1  0  0  0
 16 18  1  0  0  0
 17 31  1  0  0  0
 18 23  1  0  0  0
 18 19  1  0  0  0
 18 41  1  0  0  0
 19 20  1  0  0  0
 19 42  1  0  0  0
 19 43  1  0  0  0
 20 21  1  0  0  0
 20 44  1  0  0  0
 20 45  1  0  0  0
 21 22  1  0  0  0
 21 46  1  0  0  0
 21 59  1  0  0  0
 22 23  1  0  0  0
 22 47  1  0  0  0
 22 48  1  0  0  0
 23 49  1  0  0  0
 23 50  1  0  0  0
 24 25  2  0  0  0
 24 26  1  0  0  0
 26 30  1  0  0  0
 26 27  1  0  0  0
 27 28  1  0  0  0
 27 51  1  0  0  0
 27 52  1  0  0  0
 28 29  1  0  0  0
 28 53  1  0  0  0
 28 54  1  0  0  0
 29 30  1  0  0  0
 29 55  1  0  0  0
 29 56  1  0  0  0
 30 57  1  0  0  0
 30 58  1  0  0  0
M  CHG  1  21   1
M  END
> <s_m_source_file>
/home/yujie/leadopt/data/result/selection/CDK9/lig_9.sdf

> <i_m_source_file_index>
1

> <i_lp_mmshare_version>
51139

> <i_f3d_flags>
0

> <s_epik_input>
W0NIMl0xW0NIMl1bQ0gyXVtDSDJdTjFDKD1PKWMoW2NIXWMyT1tDSDNdKVtjSF1bY0hdYzItYyhbY0hdW2NIXW4zKWMoYzM0KVtjSF1jKFtuSF00KVtDSF01W0NIMl1bQ0gyXVtOSF1bQ0gyXVtDSDJdNQ==

> <s_epik_cmdline>
J2VwaWtfcHl0aG9uJywgJy1waHQnLCAnMi4wJywgJy1waCcsICc3LjAnLCAnLXRuJywgJzgnLCAnLW1hJywgJzIwMCcsICctaW1hZScsICc8aW5maWxlLm1hZT4nLCAnLW9tYWUnLCAnPG91dGZpbGUubWFlPic=

> <r_lp_tautomer_probability>
1

> <r_epik_Ionization_Penalty>
  0.0029

> <r_epik_Ionization_Penalty_Charging>
  0.0006

> <r_epik_Ionization_Penalty_Neutral>
  0.0023

> <r_epik_State_Penalty>
 -0.0000

> <r_epik_Charging_Adjusted_Penalty>
0.000597526

> <i_epik_Tot_Q>
1

> <i_epik_Tot_abs_Q>
1

> <s_lp_Force_Field>
OPLS3e

> <r_lp_Energy>
53.324

> <b_lp_Chiralities_Consistent>
1

> <s_lp_Variant>
/home/yujie/leadopt/data/result/selection/CDK9/lig_9.sdf:1-1

> <s_i_glide_gridfile>
glide-grid_CDK9

> <i_i_glide_lignum>
1

> <i_i_glide_rotatable_bonds>
5

> <r_i_docking_score>
-9.90611887858621

> <r_i_glide_ligand_efficiency>
-0.33020396261954

> <r_i_glide_ligand_efficiency_sa>
-1.02602048508298

> <r_i_glide_ligand_efficiency_ln>
-2.25077814502495

> <r_i_glide_gscore>
-9.90611887858621

> <r_i_glide_lipo>
-3.05172749717904

> <r_i_glide_hbond>
-0.76

> <r_i_glide_metal>
-0

> <r_i_glide_rewards>
-2.07568325347396

> <r_i_glide_evdw>
-39.5896224975586

> <r_i_glide_ecoul>
-14.6303472518921

> <r_i_glide_erotb>
0.334647559309027

> <r_i_glide_esite>
-0.179322474580491

> <r_i_glide_emodel>
-83.9342761943344

> <r_i_glide_energy>
-54.2199697494507

> <r_i_glide_einternal>
3.48251914978027

> <i_i_glide_confnum>
54

> <i_i_glide_posenum>
39

> <r_i_glide_eff_state_penalty>
-0

$$$$
