@<TRIPOS>MOLECULE
/home/yujie/leadopt/data/result/selection/CDK9/lig_9.sdf:1
59   63    1
SMALL
USER_CHARGES


@<TRIPOS>ATOM
      1 C1        -41.0440  -36.5678    0.1247 C.3       1 UNK         0.0000 
      2 O2        -40.4296  -37.2059   -0.9947 O.3       1 UNK         0.0000 
      3 C3        -40.1532  -36.4901   -2.1455 C.ar      1 UNK         0.0000 
      4 C4        -40.4027  -35.1208   -2.2527 C.ar      1 UNK         0.0000 
      5 C5        -40.2318  -34.4364   -3.4587 C.ar      1 UNK         0.0000 
      6 C6        -39.6257  -35.1131   -4.5225 C.ar      1 UNK         0.0000 
      7 C7        -39.3079  -36.4622   -4.4169 C.ar      1 UNK         0.0000 
      8 C8        -39.6197  -37.1699   -3.2538 C.ar      1 UNK         0.0000 
      9 C9        -39.4360  -38.6340   -3.2300 C.ar      1 UNK         0.0000 
     10 C10       -38.1677  -39.2219   -3.3308 C.ar      1 UNK         0.0000 
     11 C11       -38.0442  -40.6109   -3.2490 C.ar      1 UNK         0.0000 
     12 N12       -39.0870  -41.4653   -3.0807 N.ar      1 UNK         0.0000 
     13 C13       -40.2833  -40.8757   -3.0220 C.ar      1 UNK         0.0000 
     14 C14       -40.5473  -39.4898   -3.0931 C.ar      1 UNK         0.0000 
     15 C15       -41.9788  -39.3435   -2.9939 C.ar      1 UNK         0.0000 
     16 C16       -42.5269  -40.6027   -2.7947 C.ar      1 UNK         0.0000 
     17 N17       -41.4856  -41.4938   -2.8125 N.pl3     1 UNK         0.0000 
     18 C18       -43.9492  -41.0906   -2.5616 C.3       1 UNK         0.0000 
     19 C19       -44.3667  -42.2284   -3.5274 C.3       1 UNK         0.0000 
     20 C20       -45.8278  -42.6734   -3.3101 C.3       1 UNK         0.0000 
     21 N21       -46.0282  -43.0931   -1.8405 N.4       1 UNK         0.0000 
     22 C22       -45.6340  -41.9738   -0.8554 C.3       1 UNK         0.0000 
     23 C23       -44.1710  -41.5573   -1.1047 C.3       1 UNK         0.0000 
     24 C24       -40.6781  -33.0048   -3.6507 C.2       1 UNK         0.0000 
     25 O25       -40.0295  -32.2934   -4.4131 O.2       1 UNK         0.0000 
     26 N26       -41.8009  -32.5341   -3.0566 N.am      1 UNK         0.0000 
     27 C27       -42.6500  -33.2183   -2.0700 C.3       1 UNK         0.0000 
     28 C28       -43.8771  -32.3420   -2.0122 C.3       1 UNK         0.0000 
     29 C29       -43.3119  -30.9470   -2.2572 C.3       1 UNK         0.0000 
     30 C30       -42.2594  -31.1649   -3.3275 C.3       1 UNK         0.0000 
     31 H31       -41.6282  -42.4871   -2.6599 H         1 UNK         0.0000 
     32 H32       -41.1853  -37.2938    0.9249 H         1 UNK         0.0000 
     33 H33       -40.4255  -35.7647    0.5275 H         1 UNK         0.0000 
     34 H34       -42.0277  -36.1686   -0.1276 H         1 UNK         0.0000 
     35 H35       -40.7539  -34.5964   -1.3860 H         1 UNK         0.0000 
     36 H36       -39.4369  -34.6074   -5.4574 H         1 UNK         0.0000 
     37 H37       -38.8820  -36.9748   -5.2686 H         1 UNK         0.0000 
     38 H38       -37.2871  -38.6062   -3.4462 H         1 UNK         0.0000 
     39 H39       -37.0695  -41.0750   -3.3053 H         1 UNK         0.0000 
     40 H40       -42.5418  -38.4220   -3.0164 H         1 UNK         0.0000 
     41 H41       -44.6362  -40.2586   -2.7331 H         1 UNK         0.0000 
     42 H42       -44.2786  -41.8939   -4.5612 H         1 UNK         0.0000 
     43 H43       -43.7284  -43.1033   -3.3887 H         1 UNK         0.0000 
     44 H44       -46.5407  -41.8692   -3.5034 H         1 UNK         0.0000 
     45 H45       -46.0944  -43.5419   -3.9141 H         1 UNK         0.0000 
     46 H46       -46.9962  -43.3424   -1.6872 H         1 UNK         0.0000 
     47 H47       -46.3348  -41.1500   -1.0093 H         1 UNK         0.0000 
     48 H48       -45.7972  -42.3738    0.1433 H         1 UNK         0.0000 
     49 H49       -43.5276  -42.4071   -0.8677 H         1 UNK         0.0000 
     50 H50       -43.9356  -40.7453   -0.4157 H         1 UNK         0.0000 
     51 H51       -42.1739  -33.1827   -1.0882 H         1 UNK         0.0000 
     52 H52       -42.9071  -34.2394   -2.3547 H         1 UNK         0.0000 
     53 H53       -44.4169  -32.4405   -1.0704 H         1 UNK         0.0000 
     54 H54       -44.5293  -32.6935   -2.8133 H         1 UNK         0.0000 
     55 H55       -44.0294  -30.1860   -2.5521 H         1 UNK         0.0000 
     56 H56       -42.8300  -30.5696   -1.3549 H         1 UNK         0.0000 
     57 H57       -42.7211  -31.1091   -4.3151 H         1 UNK         0.0000 
     58 H58       -41.4612  -30.4286   -3.2124 H         1 UNK         0.0000 
     59 H59       -45.4944  -43.9414   -1.6542 H         1 UNK         0.0000 
@<TRIPOS>BOND
     1    1    2 1    
     2    1   32 1    
     3    1   33 1    
     4    1   34 1    
     5    2    3 1    
     6    3    8 ar   
     7    3    4 ar   
     8    4    5 ar   
     9    4   35 1    
    10    5    6 ar   
    11    5   24 1    
    12    6    7 ar   
    13    6   36 1    
    14    7    8 ar   
    15    7   37 1    
    16    8    9 1    
    17    9   14 ar   
    18    9   10 ar   
    19   10   11 ar   
    20   10   38 1    
    21   11   12 ar   
    22   11   39 1    
    23   12   13 ar   
    24   13   17 ar   
    25   13   14 ar   
    26   14   15 ar   
    27   15   16 ar   
    28   15   40 1    
    29   16   17 ar   
    30   16   18 1    
    31   17   31 1    
    32   18   23 1    
    33   18   19 1    
    34   18   41 1    
    35   19   20 1    
    36   19   42 1    
    37   19   43 1    
    38   20   21 1    
    39   20   44 1    
    40   20   45 1    
    41   21   22 1    
    42   21   46 1    
    43   21   59 1    
    44   22   23 1    
    45   22   47 1    
    46   22   48 1    
    47   23   49 1    
    48   23   50 1    
    49   24   25 2    
    50   24   26 am   BACKBONE|DICT|INTERRES
    51   26   30 1    
    52   26   27 1    
    53   27   28 1    
    54   27   51 1    
    55   27   52 1    
    56   28   29 1    
    57   28   53 1    
    58   28   54 1    
    59   29   30 1    
    60   29   55 1    
    61   29   56 1    
    62   30   57 1    
    63   30   58 1    
@<TRIPOS>SUBSTRUCTURE
     1 UNK         1 GROUP             0       ****    0 ROOT    
