@<TRIPOS>MOLECULE
/home/yujie/leadopt/data/result/selection/CDK9/lig_15.sdf:1
48   51    1
SMALL
USER_CHARGES


@<TRIPOS>ATOM
      1 C1        -47.7577  -42.1146   -1.4392 C.3       1 UNK         0.0000 
      2 N2        -46.3902  -41.4890   -1.7964 N.4       1 UNK         0.0000 
      3 C3        -46.0469  -41.7719   -3.2718 C.3       1 UNK         0.0000 
      4 C4        -44.7063  -41.1042   -3.6278 C.3       1 UNK         0.0000 
      5 C5        -43.5578  -41.4067   -2.6354 C.3       1 UNK         0.0000 
      6 C6        -43.9685  -41.3660   -1.1498 C.3       1 UNK         0.0000 
      7 C7        -45.3027  -42.0703   -0.8744 C.3       1 UNK         0.0000 
      8 C8        -42.2302  -40.7207   -2.9114 C.ar      1 UNK         0.0000 
      9 C9        -41.8415  -39.3910   -3.0567 C.ar      1 UNK         0.0000 
     10 C10       -40.4056  -39.3582   -3.1969 C.ar      1 UNK         0.0000 
     11 C11       -39.3924  -38.3772   -3.3405 C.ar      1 UNK         0.0000 
     12 C12       -38.0701  -38.8318   -3.4565 C.ar      1 UNK         0.0000 
     13 C13       -37.7938  -40.1967   -3.4310 C.ar      1 UNK         0.0000 
     14 N14       -38.7341  -41.1595   -3.2834 N.ar      1 UNK         0.0000 
     15 C15       -39.9857  -40.7148   -3.1755 C.ar      1 UNK         0.0000 
     16 N16       -41.1010  -41.4928   -2.9990 N.pl3     1 UNK         0.0000 
     17 C17       -39.6679  -36.9183   -3.3886 C.ar      1 UNK         0.0000 
     18 C18       -39.2273  -36.2006   -4.5069 C.ar      1 UNK         0.0000 
     19 C19       -39.4110  -34.8264   -4.5891 C.ar      1 UNK         0.0000 
     20 C20       -40.0374  -34.1463   -3.5521 C.ar      1 UNK         0.0000 
     21 C21       -40.4828  -34.8438   -2.4312 C.ar      1 UNK         0.0000 
     22 C22       -40.2983  -36.2354   -2.3294 C.ar      1 UNK         0.0000 
     23 O23       -40.6790  -36.9736   -1.2215 O.3       1 UNK         0.0000 
     24 C24       -41.1746  -36.3090   -0.0629 C.3       1 UNK         0.0000 
     25 F25       -40.2033  -32.8074   -3.6375 F         1 UNK         0.0000 
     26 H26       -41.1455  -42.4999   -2.8968 H         1 UNK         0.0000 
     27 H27       -47.6971  -43.1932   -1.5976 H         1 UNK         0.0000 
     28 H28       -47.9714  -41.8856   -0.3926 H         1 UNK         0.0000 
     29 H29       -48.5077  -41.6588   -2.0869 H         1 UNK         0.0000 
     30 H30       -46.8656  -41.3875   -3.8826 H         1 UNK         0.0000 
     31 H31       -45.9998  -42.8577   -3.3848 H         1 UNK         0.0000 
     32 H32       -44.4470  -41.4939   -4.6116 H         1 UNK         0.0000 
     33 H33       -44.8839  -40.0284   -3.6767 H         1 UNK         0.0000 
     34 H34       -43.4450  -42.4851   -2.7825 H         1 UNK         0.0000 
     35 H35       -44.0637  -40.3325   -0.8125 H         1 UNK         0.0000 
     36 H36       -43.2201  -41.8791   -0.5424 H         1 UNK         0.0000 
     37 H37       -45.6294  -41.8935    0.1432 H         1 UNK         0.0000 
     38 H38       -45.2499  -43.1455   -1.0568 H         1 UNK         0.0000 
     39 H39       -42.5091  -38.5429   -3.0186 H         1 UNK         0.0000 
     40 H40       -37.2575  -38.1270   -3.5665 H         1 UNK         0.0000 
     41 H41       -36.7761  -40.5519   -3.5139 H         1 UNK         0.0000 
     42 H42       -38.7324  -36.7132   -5.3207 H         1 UNK         0.0000 
     43 H43       -39.0632  -34.2930   -5.4573 H         1 UNK         0.0000 
     44 H44       -40.9588  -34.2788   -1.6437 H         1 UNK         0.0000 
     45 H45       -41.3658  -37.0458    0.7190 H         1 UNK         0.0000 
     46 H46       -40.4498  -35.5943    0.3293 H         1 UNK         0.0000 
     47 H47       -42.1138  -35.7916   -0.2619 H         1 UNK         0.0000 
     48 H48       -46.4321  -40.4892   -1.6413 H         1 UNK         0.0000 
@<TRIPOS>BOND
     1    1    2 1    
     2    1   27 1    
     3    1   28 1    
     4    1   29 1    
     5    2    7 1    
     6    2    3 1    
     7    2   48 1    
     8    3    4 1    
     9    3   30 1    
    10    3   31 1    
    11    4    5 1    
    12    4   32 1    
    13    4   33 1    
    14    5    6 1    
    15    5    8 1    
    16    5   34 1    
    17    6    7 1    
    18    6   35 1    
    19    6   36 1    
    20    7   37 1    
    21    7   38 1    
    22    8   16 ar   
    23    8    9 ar   
    24    9   10 ar   
    25    9   39 1    
    26   10   15 ar   
    27   10   11 ar   
    28   11   12 ar   
    29   11   17 1    
    30   12   13 ar   
    31   12   40 1    
    32   13   14 ar   
    33   13   41 1    
    34   14   15 ar   
    35   15   16 ar   
    36   16   26 1    
    37   17   22 ar   
    38   17   18 ar   
    39   18   19 ar   
    40   18   42 1    
    41   19   20 ar   
    42   19   43 1    
    43   20   21 ar   
    44   20   25 1    
    45   21   22 ar   
    46   21   44 1    
    47   22   23 1    
    48   23   24 1    
    49   24   45 1    
    50   24   46 1    
    51   24   47 1    
@<TRIPOS>SUBSTRUCTURE
     1 UNK         1 GROUP             0       ****    0 ROOT    
