@<TRIPOS>MOLECULE
/home/yujie/leadopt/data/result/selection/CDK9/lig_3.sdf:1
54   58    1
SMALL
USER_CHARGES


@<TRIPOS>ATOM
      1 C1        -41.2131  -36.3591   -0.1038 C.3       1 UNK         0.0000 
      2 O2        -40.6007  -37.0490   -1.1893 O.3       1 UNK         0.0000 
      3 C3        -40.1936  -36.3479   -2.3127 C.ar      1 UNK         0.0000 
      4 C4        -40.3385  -34.9545   -2.4435 C.ar      1 UNK         0.0000 
      5 C5        -39.8613  -34.2924   -3.5724 C.ar      1 UNK         0.0000 
      6 C6        -39.2427  -35.0083   -4.5875 C.ar      1 UNK         0.0000 
      7 C7        -39.1050  -36.3870   -4.4793 C.ar      1 UNK         0.0000 
      8 C8        -39.5778  -37.0728   -3.3542 C.ar      1 UNK         0.0000 
      9 C9        -39.3763  -38.5469   -3.2879 C.ar      1 UNK         0.0000 
     10 C10       -38.0923  -39.0889   -3.4566 C.ar      1 UNK         0.0000 
     11 C11       -37.8978  -40.4706   -3.4057 C.ar      1 UNK         0.0000 
     12 N12       -38.8849  -41.3825   -3.2064 N.ar      1 UNK         0.0000 
     13 C13       -40.0970  -40.8510   -3.0564 C.ar      1 UNK         0.0000 
     14 C14       -40.4248  -39.4745   -3.0728 C.ar      1 UNK         0.0000 
     15 N15       -41.7752  -39.3121   -2.8615 N.2       1 UNK         0.0000 
     16 C16       -42.2485  -40.5265   -2.6641 C.ar      1 UNK         0.0000 
     17 N17       -41.2778  -41.4935   -2.7937 N.pl3     1 UNK         0.0000 
     18 C18       -43.6703  -40.8531   -2.3295 C.ar      1 UNK         0.0000 
     19 C19       -44.5137  -39.8797   -1.7842 C.ar      1 UNK         0.0000 
     20 C20       -45.8311  -40.1930   -1.4567 C.ar      1 UNK         0.0000 
     21 C21       -46.3232  -41.4806   -1.6847 C.ar      1 UNK         0.0000 
     22 C22       -45.4836  -42.4564   -2.2247 C.ar      1 UNK         0.0000 
     23 C23       -44.1660  -42.1453   -2.5447 C.ar      1 UNK         0.0000 
     24 C24       -47.7658  -41.8399   -1.3217 C.3       1 UNK         0.0000 
     25 N25       -48.7729  -41.4563   -2.3188 N.3       1 UNK         0.0000 
     26 C26       -48.6042  -42.0757   -3.6391 C.3       1 UNK         0.0000 
     27 C27       -49.7784  -41.7083   -4.5744 C.3       1 UNK         0.0000 
     28 O28       -49.9561  -40.2939   -4.6328 O.3       1 UNK         0.0000 
     29 C29       -50.2180  -39.7295   -3.3478 C.3       1 UNK         0.0000 
     30 C30       -49.0434  -40.0162   -2.3888 C.3       1 UNK         0.0000 
     31 F31       -39.9904  -32.9513   -3.6881 F         1 UNK         0.0000 
     32 H32       -41.4514  -42.4848   -2.6569 H         1 UNK         0.0000 
     33 H33       -41.4741  -37.0769    0.6746 H         1 UNK         0.0000 
     34 H34       -40.5396  -35.6255    0.3401 H         1 UNK         0.0000 
     35 H35       -42.1338  -35.8610   -0.4097 H         1 UNK         0.0000 
     36 H36       -40.8086  -34.3631   -1.6725 H         1 UNK         0.0000 
     37 H37       -38.8671  -34.4925   -5.4552 H         1 UNK         0.0000 
     38 H38       -38.6222  -36.9291   -5.2802 H         1 UNK         0.0000 
     39 H39       -37.2434  -38.4381   -3.6177 H         1 UNK         0.0000 
     40 H40       -36.9042  -40.8759   -3.5262 H         1 UNK         0.0000 
     41 H41       -44.1467  -38.8807   -1.5962 H         1 UNK         0.0000 
     42 H42       -46.4659  -39.4415   -1.0077 H         1 UNK         0.0000 
     43 H43       -45.8467  -43.4632   -2.3873 H         1 UNK         0.0000 
     44 H44       -43.5387  -42.9216   -2.9586 H         1 UNK         0.0000 
     45 H45       -48.0291  -41.3855   -0.3666 H         1 UNK         0.0000 
     46 H46       -47.8304  -42.9152   -1.1508 H         1 UNK         0.0000 
     47 H47       -48.5548  -43.1595   -3.5222 H         1 UNK         0.0000 
     48 H48       -47.6527  -41.7709   -4.0768 H         1 UNK         0.0000 
     49 H49       -49.5794  -42.0776   -5.5802 H         1 UNK         0.0000 
     50 H50       -50.6990  -42.1928   -4.2459 H         1 UNK         0.0000 
     51 H51       -50.3525  -38.6536   -3.4561 H         1 UNK         0.0000 
     52 H52       -51.1545  -40.1198   -2.9408 H         1 UNK         0.0000 
     53 H53       -48.1506  -39.4743   -2.7035 H         1 UNK         0.0000 
     54 H54       -49.2890  -39.6484   -1.3909 H         1 UNK         0.0000 
@<TRIPOS>BOND
     1    1    2 1    
     2    1   33 1    
     3    1   34 1    
     4    1   35 1    
     5    2    3 1    
     6    3    8 ar   
     7    3    4 ar   
     8    4    5 ar   
     9    4   36 1    
    10    5    6 ar   
    11    5   31 1    
    12    6    7 ar   
    13    6   37 1    
    14    7    8 ar   
    15    7   38 1    
    16    8    9 1    
    17    9   14 ar   
    18    9   10 ar   
    19   10   11 ar   
    20   10   39 1    
    21   11   12 ar   
    22   11   40 1    
    23   12   13 ar   
    24   13   17 ar   
    25   13   14 ar   
    26   14   15 ar   
    27   15   16 ar   
    28   16   17 ar   
    29   16   18 1    
    30   17   32 1    
    31   18   23 ar   
    32   18   19 ar   
    33   19   20 ar   
    34   19   41 1    
    35   20   21 ar   
    36   20   42 1    
    37   21   22 ar   
    38   21   24 1    
    39   22   23 ar   
    40   22   43 1    
    41   23   44 1    
    42   24   25 1    
    43   24   45 1    
    44   24   46 1    
    45   25   30 1    
    46   25   26 1    
    47   26   27 1    
    48   26   47 1    
    49   26   48 1    
    50   27   28 1    
    51   27   49 1    
    52   27   50 1    
    53   28   29 1    
    54   29   30 1    
    55   29   51 1    
    56   29   52 1    
    57   30   53 1    
    58   30   54 1    
@<TRIPOS>SUBSTRUCTURE
     1 UNK         1 GROUP             0       ****    0 ROOT    
