/home/yujie/leadopt/data/result/selection/CDK9/lig_13.sdf:1
                    3D
 Schrodinger Suite 2020-3.
 49 52  0  0  1  0            999 V2000
  -48.4986  -40.8267   -1.0566 C   0  0  0  0  0  0
  -47.6410  -42.0270   -1.4570 C   0  0  0  0  0  0
  -47.8436  -43.0957   -0.8761 O   0  0  0  0  0  0
  -46.6425  -41.8565   -2.3618 N   0  0  0  0  0  0
  -45.7131  -42.9564   -2.6682 C   0  0  0  0  0  0
  -44.2898  -42.4356   -2.3600 C   0  0  0  0  0  0
  -43.9605  -41.1476   -3.1625 C   0  0  0  0  0  0
  -45.0684  -40.0848   -2.9635 C   0  0  0  0  0  0
  -46.4913  -40.6497   -3.1973 C   0  0  0  0  0  0
  -42.5313  -40.6157   -3.0564 C   0  0  0  0  0  0
  -41.9818  -39.3346   -3.0898 C   0  0  0  0  0  0
  -40.5453  -39.4546   -3.1218 C   0  0  0  0  0  0
  -39.4272  -38.5876   -3.2157 C   0  0  0  0  0  0
  -38.1564  -39.1851   -3.2196 C   0  0  0  0  0  0
  -38.0318  -40.5727   -3.1336 C   0  0  0  0  0  0
  -39.0793  -41.4324   -3.0599 N   0  0  0  0  0  0
  -40.2769  -40.8473   -3.0555 C   0  0  0  0  0  0
  -41.4818  -41.4936   -2.9904 N   0  0  0  0  0  0
  -39.5496  -37.1101   -3.3491 C   0  0  0  0  0  0
  -38.9336  -36.4920   -4.4456 C   0  0  0  0  0  0
  -38.9859  -35.1135   -4.6117 C   0  0  0  0  0  0
  -39.6574  -34.3278   -3.6853 C   0  0  0  0  0  0
  -40.2746  -34.9239   -2.5869 C   0  0  0  0  0  0
  -40.2254  -36.3181   -2.3996 C   0  0  0  0  0  0
  -40.7836  -36.9592   -1.3065 O   0  0  0  0  0  0
  -41.4648  -36.1988   -0.3111 C   0  0  0  0  0  0
  -39.6966  -32.9874   -3.8519 F   0  0  0  0  0  0
  -41.6287  -42.4945   -2.9151 H   0  0  0  0  0  0
  -49.1602  -40.5293   -1.8701 H   0  0  0  0  0  0
  -47.8702  -39.9810   -0.7729 H   0  0  0  0  0  0
  -49.1108  -41.0766   -0.1892 H   0  0  0  0  0  0
  -45.9520  -43.8924   -2.1564 H   0  0  0  0  0  0
  -45.8084  -43.1718   -3.7324 H   0  0  0  0  0  0
  -44.1981  -42.2709   -1.2844 H   0  0  0  0  0  0
  -43.6268  -43.2494   -2.6524 H   0  0  0  0  0  0
  -44.0902  -41.4928   -4.1913 H   0  0  0  0  0  0
  -44.9481  -39.2752   -3.6839 H   0  0  0  0  0  0
  -45.0264  -39.6696   -1.9551 H   0  0  0  0  0  0
  -46.5881  -40.9630   -4.2375 H   0  0  0  0  0  0
  -47.2562  -39.8919   -3.0294 H   0  0  0  0  0  0
  -42.5526  -38.4194   -3.1348 H   0  0  0  0  0  0
  -37.2670  -38.5731   -3.2859 H   0  0  0  0  0  0
  -37.0509  -41.0276   -3.1270 H   0  0  0  0  0  0
  -38.4040  -37.0880   -5.1766 H   0  0  0  0  0  0
  -38.5001  -34.6508   -5.4552 H   0  0  0  0  0  0
  -40.7748  -34.2783   -1.8811 H   0  0  0  0  0  0
  -41.8478  -36.8686    0.4592 H   0  0  0  0  0  0
  -40.7975  -35.4870    0.1775 H   0  0  0  0  0  0
  -42.3186  -35.6599   -0.7300 H   0  0  0  0  0  0
  1  2  1  0  0  0
  1 29  1  0  0  0
  1 30  1  0  0  0
  1 31  1  0  0  0
  2  3  2  0  0  0
  2  4  1  0  0  0
  4  9  1  0  0  0
  4  5  1  0  0  0
  5  6  1  0  0  0
  5 32  1  0  0  0
  5 33  1  0  0  0
  6  7  1  0  0  0
  6 34  1  0  0  0
  6 35  1  0  0  0
  7  8  1  0  0  0
  7 10  1  0  0  0
  7 36  1  0  0  0
  8  9  1  0  0  0
  8 37  1  0  0  0
  8 38  1  0  0  0
  9 39  1  0  0  0
  9 40  1  0  0  0
 10 18  1  0  0  0
 10 11  2  0  0  0
 11 12  1  0  0  0
 11 41  1  0  0  0
 12 17  2  0  0  0
 12 13  1  0  0  0
 13 14  2  0  0  0
 13 19  1  0  0  0
 14 15  1  0  0  0
 14 42  1  0  0  0
 15 16  2  0  0  0
 15 43  1  0  0  0
 16 17  1  0  0  0
 17 18  1  0  0  0
 18 28  1  0  0  0
 19 24  1  0  0  0
 19 20  2  0  0  0
 20 21  1  0  0  0
 20 44  1  0  0  0
 21 22  2  0  0  0
 21 45  1  0  0  0
 22 23  1  0  0  0
 22 27  1  0  0  0
 23 24  2  0  0  0
 23 46  1  0  0  0
 24 25  1  0  0  0
 25 26  1  0  0  0
 26 47  1  0  0  0
 26 48  1  0  0  0
 26 49  1  0  0  0
M  END
> <s_m_source_file>
/home/yujie/leadopt/data/result/selection/CDK9/lig_13.sdf

> <i_m_source_file_index>
1

> <i_lp_mmshare_version>
51139

> <i_f3d_flags>
0

> <s_epik_input>
W0NIM11DKD1PKU4xW0NIMl1bQ0gyXVtDSF0oW0NIMl1bQ0gyXTEpYyhbY0hdMilbbkhdYyhjMjMpbltjSF1bY0hdYzMtYzRbY0hdW2NIXWMoRilbY0hdYzRPW0NIM10=

> <s_epik_cmdline>
J2VwaWtfcHl0aG9uJywgJy1waHQnLCAnMi4wJywgJy1waCcsICc3LjAnLCAnLXRuJywgJzgnLCAnLW1hJywgJzIwMCcsICctaW1hZScsICc8aW5maWxlLm1hZT4nLCAnLW9tYWUnLCAnPG91dGZpbGUubWFlPic=

> <r_lp_tautomer_probability>
0.999998

> <r_epik_Ionization_Penalty>
  0.0022

> <r_epik_Ionization_Penalty_Charging>
  0.0000

> <r_epik_Ionization_Penalty_Neutral>
  0.0022

> <r_epik_State_Penalty>
  0.0015

> <r_epik_Charging_Adjusted_Penalty>
0.00152624

> <i_epik_Tot_Q>
0

> <i_epik_Tot_abs_Q>
0

> <s_lp_Force_Field>
OPLS3e

> <r_lp_Energy>
34.2975

> <b_lp_Chiralities_Consistent>
1

> <s_lp_Variant>
/home/yujie/leadopt/data/result/selection/CDK9/lig_13.sdf:1-1

> <s_i_glide_gridfile>
glide-grid_CDK9

> <i_i_glide_lignum>
1

> <i_i_glide_rotatable_bonds>
4

> <r_i_docking_score>
-9.063030019247

> <r_i_glide_ligand_efficiency>
-0.33566777849063

> <r_i_glide_ligand_efficiency_sa>
-1.00700333436558

> <r_i_glide_ligand_efficiency_ln>
-2.10972397275336

> <r_i_glide_gscore>
-9.064556259247

> <r_i_glide_lipo>
-2.93809303431016

> <r_i_glide_hbond>
-0.593980821582039

> <r_i_glide_metal>
-0

> <r_i_glide_rewards>
-2.40501233058263

> <r_i_glide_evdw>
-41.7642555236816

> <r_i_glide_ecoul>
-7.01259469985962

> <r_i_glide_erotb>
0.199724360297713

> <r_i_glide_esite>
-0.187092451906862

> <r_i_glide_emodel>
-76.7948902205837

> <r_i_glide_energy>
-48.7768502235413

> <r_i_glide_einternal>
1.00651812553406

> <i_i_glide_confnum>
12

> <i_i_glide_posenum>
364

> <r_i_glide_eff_state_penalty>
0.00152624

$$$$
