@<TRIPOS>MOLECULE
/home/yujie/leadopt/data/result/selection/CDK9/lig_36.sdf:1
56   59    1
SMALL
USER_CHARGES


@<TRIPOS>ATOM
      1 C1        -42.0781  -34.6463   -0.8032 C.3       1 UNK         0.0000 
      2 C2        -41.6419  -34.0631   -2.1686 C.3       1 UNK         0.0000 
      3 C3        -42.8647  -33.7339   -3.0490 C.3       1 UNK         0.0000 
      4 N4        -40.6236  -34.8514   -2.9187 N.pl3     1 UNK         0.0000 
      5 C5        -40.4853  -36.2347   -2.8250 C.ar      1 UNK         0.0000 
      6 C6        -39.5543  -36.9975   -3.4507 C.ar      1 UNK         0.0000 
      7 C7        -38.6276  -36.2477   -4.2910 C.ar      1 UNK         0.0000 
      8 C8        -38.7365  -34.9087   -4.4072 C.ar      1 UNK         0.0000 
      9 C9        -39.7420  -34.1224   -3.7038 C.ar      1 UNK         0.0000 
     10 O10       -39.7393  -32.8994   -3.8572 O.2       1 UNK         0.0000 
     11 C11       -39.4569  -38.4807   -3.3322 C.ar      1 UNK         0.0000 
     12 C12       -38.2082  -39.1167   -3.4566 C.ar      1 UNK         0.0000 
     13 C13       -38.1094  -40.5071   -3.3880 C.ar      1 UNK         0.0000 
     14 N14       -39.1582  -41.3440   -3.1955 N.ar      1 UNK         0.0000 
     15 C15       -40.3344  -40.7323   -3.0568 C.ar      1 UNK         0.0000 
     16 C16       -40.5738  -39.3290   -3.1043 C.ar      1 UNK         0.0000 
     17 C17       -41.9899  -39.1756   -2.9079 C.ar      1 UNK         0.0000 
     18 C18       -42.5356  -40.4258   -2.6580 C.ar      1 UNK         0.0000 
     19 N19       -41.5294  -41.3565   -2.7981 N.pl3     1 UNK         0.0000 
     20 C20       -43.9457  -40.8294   -2.2741 C.3       1 UNK         0.0000 
     21 C21       -44.9480  -40.7812   -3.4506 C.3       1 UNK         0.0000 
     22 C22       -46.3844  -41.1506   -3.0238 C.3       1 UNK         0.0000 
     23 N23       -46.3502  -42.5369   -2.3458 N.4       1 UNK         0.0000 
     24 C24       -45.4640  -42.5050   -1.0825 C.3       1 UNK         0.0000 
     25 C25       -44.0280  -42.1586   -1.4879 C.3       1 UNK         0.0000 
     26 C26       -47.7719  -43.1198   -2.0880 C.3       1 UNK         0.0000 
     27 C27       -48.4059  -42.7347   -0.7335 C.3       1 UNK         0.0000 
     28 F28       -49.7305  -42.8563   -0.7698 F         1 UNK         0.0000 
     29 F29       -47.9539  -43.4931    0.2654 F         1 UNK         0.0000 
     30 H30       -41.6752  -42.3499   -2.6587 H         1 UNK         0.0000 
     31 H31       -42.7612  -33.9602   -0.2990 H         1 UNK         0.0000 
     32 H32       -41.2293  -34.7821   -0.1309 H         1 UNK         0.0000 
     33 H33       -42.6211  -35.5871   -0.8976 H         1 UNK         0.0000 
     34 H34       -41.2021  -33.0952   -1.9110 H         1 UNK         0.0000 
     35 H35       -43.6468  -33.2419   -2.4677 H         1 UNK         0.0000 
     36 H36       -42.6077  -33.0408   -3.8508 H         1 UNK         0.0000 
     37 H37       -43.3110  -34.6307   -3.4821 H         1 UNK         0.0000 
     38 H38       -41.2152  -36.6663   -2.1609 H         1 UNK         0.0000 
     39 H39       -37.8563  -36.7601   -4.8519 H         1 UNK         0.0000 
     40 H40       -38.0466  -34.3758   -5.0486 H         1 UNK         0.0000 
     41 H41       -37.3071  -38.5412   -3.6067 H         1 UNK         0.0000 
     42 H42       -37.1461  -40.9864   -3.4861 H         1 UNK         0.0000 
     43 H43       -42.5590  -38.2602   -2.8952 H         1 UNK         0.0000 
     44 H44       -44.3283  -40.0860   -1.5702 H         1 UNK         0.0000 
     45 H45       -44.9843  -39.7710   -3.8572 H         1 UNK         0.0000 
     46 H46       -44.6446  -41.4799   -4.2327 H         1 UNK         0.0000 
     47 H47       -46.7979  -40.4476   -2.2991 H         1 UNK         0.0000 
     48 H48       -47.0510  -41.2109   -3.8861 H         1 UNK         0.0000 
     49 H49       -45.8767  -41.7773   -0.3795 H         1 UNK         0.0000 
     50 H50       -45.5227  -43.4962   -0.6553 H         1 UNK         0.0000 
     51 H51       -43.6550  -42.9920   -2.0844 H         1 UNK         0.0000 
     52 H52       -43.4435  -42.0864   -0.5694 H         1 UNK         0.0000 
     53 H53       -48.3879  -42.8113   -2.9326 H         1 UNK         0.0000 
     54 H54       -47.6414  -44.2013   -2.1562 H         1 UNK         0.0000 
     55 H55       -48.2178  -41.6935   -0.4761 H         1 UNK         0.0000 
     56 H56       -45.8920  -43.1715   -2.9907 H         1 UNK         0.0000 
@<TRIPOS>BOND
     1    1    2 1    
     2    1   31 1    
     3    1   32 1    
     4    1   33 1    
     5    2    3 1    
     6    2    4 1    
     7    2   34 1    
     8    3   35 1    
     9    3   36 1    
    10    3   37 1    
    11    4    9 ar   
    12    4    5 ar   
    13    5    6 ar   
    14    5   38 1    
    15    6    7 ar   
    16    6   11 1    
    17    7    8 ar   
    18    7   39 1    
    19    8    9 ar   
    20    8   40 1    
    21    9   10 2    
    22   11   16 ar   
    23   11   12 ar   
    24   12   13 ar   
    25   12   41 1    
    26   13   14 ar   
    27   13   42 1    
    28   14   15 ar   
    29   15   19 ar   
    30   15   16 ar   
    31   16   17 ar   
    32   17   18 ar   
    33   17   43 1    
    34   18   19 ar   
    35   18   20 1    
    36   19   30 1    
    37   20   25 1    
    38   20   21 1    
    39   20   44 1    
    40   21   22 1    
    41   21   45 1    
    42   21   46 1    
    43   22   23 1    
    44   22   47 1    
    45   22   48 1    
    46   23   24 1    
    47   23   26 1    
    48   23   56 1    
    49   24   25 1    
    50   24   49 1    
    51   24   50 1    
    52   25   51 1    
    53   25   52 1    
    54   26   27 1    
    55   26   53 1    
    56   26   54 1    
    57   27   28 1    
    58   27   29 1    
    59   27   55 1    
@<TRIPOS>SUBSTRUCTURE
     1 UNK         1 GROUP             0       ****    0 ROOT    
