@<TRIPOS>MOLECULE
/home/yujie/leadopt/data/result/selection/CDK9/lig_38.sdf:1
69   73    1
SMALL
USER_CHARGES


@<TRIPOS>ATOM
      1 C1        -42.0416  -34.6840   -0.8365 C.3       1 UNK         0.0000 
      2 C2        -41.5390  -34.0751   -2.1662 C.3       1 UNK         0.0000 
      3 C3        -42.7269  -33.7252   -3.0872 C.3       1 UNK         0.0000 
      4 N4        -40.5022  -34.8713   -2.8843 N.pl3     1 UNK         0.0000 
      5 C5        -40.3900  -36.2571   -2.8138 C.ar      1 UNK         0.0000 
      6 C6        -39.4453  -37.0281   -3.4102 C.ar      1 UNK         0.0000 
      7 C7        -38.4511  -36.2709   -4.1649 C.ar      1 UNK         0.0000 
      8 C8        -38.5260  -34.9255   -4.2515 C.ar      1 UNK         0.0000 
      9 C9        -39.5950  -34.1469   -3.6421 C.ar      1 UNK         0.0000 
     10 O10       -39.6313  -32.9326   -3.8579 O.2       1 UNK         0.0000 
     11 C11       -39.3852  -38.5189   -3.3193 C.ar      1 UNK         0.0000 
     12 C12       -38.1538  -39.1835   -3.4569 C.ar      1 UNK         0.0000 
     13 C13       -38.0808  -40.5740   -3.3887 C.ar      1 UNK         0.0000 
     14 N14       -39.1433  -41.3926   -3.1931 N.ar      1 UNK         0.0000 
     15 C15       -40.3091  -40.7615   -3.0577 C.ar      1 UNK         0.0000 
     16 C16       -40.5188  -39.3506   -3.1039 C.ar      1 UNK         0.0000 
     17 C17       -41.9359  -39.1774   -2.9256 C.ar      1 UNK         0.0000 
     18 C18       -42.5132  -40.4200   -2.7110 C.ar      1 UNK         0.0000 
     19 N19       -41.5185  -41.3668   -2.8114 N.pl3     1 UNK         0.0000 
     20 C20       -43.9588  -40.7931   -2.4409 C.3       1 UNK         0.0000 
     21 C21       -44.8305  -40.8095   -3.7124 C.3       1 UNK         0.0000 
     22 C22       -46.2925  -41.1567   -3.3943 C.3       1 UNK         0.0000 
     23 N23       -46.3347  -42.4899   -2.7852 N.3       1 UNK         0.0000 
     24 C24       -45.6764  -42.4747   -1.4690 C.3       1 UNK         0.0000 
     25 C25       -44.1849  -42.0765   -1.5956 C.3       1 UNK         0.0000 
     26 C26       -47.6662  -43.1229   -2.7437 C.3       1 UNK         0.0000 
     27 C27       -48.3243  -43.2917   -4.1436 C.2       1 UNK         0.0000 
     28 O28       -49.5021  -42.9383   -4.2441 O.2       1 UNK         0.0000 
     29 N29       -47.5880  -43.6389   -5.2408 N.am      1 UNK         0.0000 
     30 C30       -46.3644  -44.4617   -5.1526 C.3       1 UNK         0.0000 
     31 C31       -46.7629  -45.9226   -5.4536 C.3       1 UNK         0.0000 
     32 C32       -47.5065  -46.0691   -6.7961 C.3       1 UNK         0.0000 
     33 C33       -48.6633  -45.0584   -6.9067 C.3       1 UNK         0.0000 
     34 C34       -48.2006  -43.6206   -6.5844 C.3       1 UNK         0.0000 
     35 H35       -41.6905  -42.3597   -2.6853 H         1 UNK         0.0000 
     36 H36       -42.7112  -33.9855   -0.3328 H         1 UNK         0.0000 
     37 H37       -42.6214  -35.5960   -0.9827 H         1 UNK         0.0000 
     38 H38       -41.2263  -34.8899   -0.1433 H         1 UNK         0.0000 
     39 H39       -41.1002  -33.1122   -1.8786 H         1 UNK         0.0000 
     40 H40       -43.5178  -33.2182   -2.5329 H         1 UNK         0.0000 
     41 H41       -42.4265  -33.0372   -3.8773 H         1 UNK         0.0000 
     42 H42       -43.1719  -34.6156   -3.5336 H         1 UNK         0.0000 
     43 H43       -41.1716  -36.6849   -2.2100 H         1 UNK         0.0000 
     44 H44       -37.6329  -36.7751   -4.6573 H         1 UNK         0.0000 
     45 H45       -37.7715  -34.3886   -4.8042 H         1 UNK         0.0000 
     46 H46       -37.2356  -38.6325   -3.5989 H         1 UNK         0.0000 
     47 H47       -37.1242  -41.0652   -3.4889 H         1 UNK         0.0000 
     48 H48       -42.4976  -38.2562   -2.9296 H         1 UNK         0.0000 
     49 H49       -44.4218  -40.0083   -1.8387 H         1 UNK         0.0000 
     50 H50       -44.4640  -41.5632   -4.4124 H         1 UNK         0.0000 
     51 H51       -44.8301  -39.8372   -4.2132 H         1 UNK         0.0000 
     52 H52       -46.8318  -41.1358   -4.3406 H         1 UNK         0.0000 
     53 H53       -46.7790  -40.4278   -2.7447 H         1 UNK         0.0000 
     54 H54       -46.2181  -41.8551   -0.7452 H         1 UNK         0.0000 
     55 H55       -45.7067  -43.4905   -1.0660 H         1 UNK         0.0000 
     56 H56       -43.7979  -41.9333   -0.5862 H         1 UNK         0.0000 
     57 H57       -43.6862  -42.9414   -2.0368 H         1 UNK         0.0000 
     58 H58       -48.3231  -42.5351   -2.1016 H         1 UNK         0.0000 
     59 H59       -47.5897  -44.1162   -2.3035 H         1 UNK         0.0000 
     60 H60       -45.8015  -44.3482   -4.2300 H         1 UNK         0.0000 
     61 H61       -45.6833  -44.0939   -5.9193 H         1 UNK         0.0000 
     62 H62       -47.3823  -46.2970   -4.6378 H         1 UNK         0.0000 
     63 H63       -45.8755  -46.5557   -5.4514 H         1 UNK         0.0000 
     64 H64       -46.8078  -45.9043   -7.6168 H         1 UNK         0.0000 
     65 H65       -47.8827  -47.0878   -6.9090 H         1 UNK         0.0000 
     66 H66       -49.0846  -45.0900   -7.9114 H         1 UNK         0.0000 
     67 H67       -49.4766  -45.3375   -6.2346 H         1 UNK         0.0000 
     68 H68       -48.9755  -42.8603   -6.6876 H         1 UNK         0.0000 
     69 H69       -47.4240  -43.3047   -7.2829 H         1 UNK         0.0000 
@<TRIPOS>BOND
     1    1    2 1    
     2    1   36 1    
     3    1   37 1    
     4    1   38 1    
     5    2    3 1    
     6    2    4 1    
     7    2   39 1    
     8    3   40 1    
     9    3   41 1    
    10    3   42 1    
    11    4    9 ar   
    12    4    5 ar   
    13    5    6 ar   
    14    5   43 1    
    15    6    7 ar   
    16    6   11 1    
    17    7    8 ar   
    18    7   44 1    
    19    8    9 ar   
    20    8   45 1    
    21    9   10 2    
    22   11   16 ar   
    23   11   12 ar   
    24   12   13 ar   
    25   12   46 1    
    26   13   14 ar   
    27   13   47 1    
    28   14   15 ar   
    29   15   19 ar   
    30   15   16 ar   
    31   16   17 ar   
    32   17   18 ar   
    33   17   48 1    
    34   18   19 ar   
    35   18   20 1    
    36   19   35 1    
    37   20   25 1    
    38   20   21 1    
    39   20   49 1    
    40   21   22 1    
    41   21   50 1    
    42   21   51 1    
    43   22   23 1    
    44   22   52 1    
    45   22   53 1    
    46   23   24 1    
    47   23   26 1    
    48   24   25 1    
    49   24   54 1    
    50   24   55 1    
    51   25   56 1    
    52   25   57 1    
    53   26   27 1    
    54   26   58 1    
    55   26   59 1    
    56   27   28 2    
    57   27   29 am   BACKBONE|DICT|INTERRES
    58   29   34 1    
    59   29   30 1    
    60   30   31 1    
    61   30   60 1    
    62   30   61 1    
    63   31   32 1    
    64   31   62 1    
    65   31   63 1    
    66   32   33 1    
    67   32   64 1    
    68   32   65 1    
    69   33   34 1    
    70   33   66 1    
    71   33   67 1    
    72   34   68 1    
    73   34   69 1    
@<TRIPOS>SUBSTRUCTURE
     1 UNK         1 GROUP             0       ****    0 ROOT    
