@<TRIPOS>MOLECULE
/home/yujie/leadopt/data/result/selection/CDK9/lig_23.sdf:1
60   63    1
SMALL
USER_CHARGES


@<TRIPOS>ATOM
      1 C1        -42.8576  -33.7443   -3.1061 C.3       1 UNK         0.0000 
      2 C2        -41.6324  -34.1967   -2.2932 C.3       1 UNK         0.0000 
      3 N3        -40.6541  -34.9681   -3.0801 N.pl3     1 UNK         0.0000 
      4 C4        -40.5428  -36.3441   -2.9668 C.ar      1 UNK         0.0000 
      5 C5        -39.6372  -37.1247   -3.6044 C.ar      1 UNK         0.0000 
      6 C6        -38.7410  -36.4032   -4.5019 C.ar      1 UNK         0.0000 
      7 C7        -38.8282  -35.0620   -4.6288 C.ar      1 UNK         0.0000 
      8 C8        -39.7595  -34.2514   -3.8565 C.ar      1 UNK         0.0000 
      9 O9        -39.6795  -33.0233   -3.9314 O.2       1 UNK         0.0000 
     10 C10       -39.5111  -38.5923   -3.4135 C.ar      1 UNK         0.0000 
     11 C11       -38.2437  -39.1942   -3.4948 C.ar      1 UNK         0.0000 
     12 C12       -38.1050  -40.5759   -3.3746 C.ar      1 UNK         0.0000 
     13 N13       -39.1334  -41.4327   -3.1662 N.ar      1 UNK         0.0000 
     14 C14       -40.3257  -40.8484   -3.0564 C.ar      1 UNK         0.0000 
     15 C15       -40.6067  -39.4560   -3.1502 C.ar      1 UNK         0.0000 
     16 C16       -42.0306  -39.3363   -2.9495 C.ar      1 UNK         0.0000 
     17 C17       -42.5333  -40.6006   -2.6568 C.ar      1 UNK         0.0000 
     18 N18       -41.5000  -41.4935   -2.7722 N.pl3     1 UNK         0.0000 
     19 C19       -43.8972  -41.1201   -2.2418 C.3       1 UNK         0.0000 
     20 C20       -44.8124  -40.0469   -1.6192 C.3       1 UNK         0.0000 
     21 C21       -46.0935  -40.6873   -1.0567 C.3       1 UNK         0.0000 
     22 N22       -46.8110  -41.4502   -2.1973 N.4       1 UNK         0.0000 
     23 C23       -45.9239  -42.5317   -2.8671 C.3       1 UNK         0.0000 
     24 C24       -44.6318  -41.8659   -3.3784 C.3       1 UNK         0.0000 
     25 C25       -48.2296  -41.9554   -1.7844 C.3       1 UNK         0.0000 
     26 C26       -48.2741  -43.0223   -0.6572 C.2       1 UNK         0.0000 
     27 O27       -47.2295  -43.5333   -0.2561 O.2       1 UNK         0.0000 
     28 N28       -49.4817  -43.3772   -0.1453 N.am      1 UNK         0.0000 
     29 C29       -50.7737  -42.8511   -0.5966 C.3       1 UNK         0.0000 
     30 C30       -49.6103  -44.3603    0.9348 C.3       1 UNK         0.0000 
     31 H31       -41.6279  -42.4879   -2.6074 H         1 UNK         0.0000 
     32 H32       -43.5678  -33.2234   -2.4632 H         1 UNK         0.0000 
     33 H33       -42.5767  -33.0474   -3.8960 H         1 UNK         0.0000 
     34 H34       -43.3779  -34.5907   -3.5555 H         1 UNK         0.0000 
     35 H35       -41.9666  -34.7869   -1.4389 H         1 UNK         0.0000 
     36 H36       -41.1554  -33.3153   -1.8583 H         1 UNK         0.0000 
     37 H37       -41.2400  -36.7370   -2.2408 H         1 UNK         0.0000 
     38 H38       -38.0284  -36.9433   -5.1080 H         1 UNK         0.0000 
     39 H39       -38.1670  -34.5497   -5.3095 H         1 UNK         0.0000 
     40 H40       -37.3579  -38.5969   -3.6574 H         1 UNK         0.0000 
     41 H41       -37.1276  -41.0312   -3.4463 H         1 UNK         0.0000 
     42 H42       -42.6224  -38.4338   -2.9613 H         1 UNK         0.0000 
     43 H43       -43.7289  -41.8548   -1.4492 H         1 UNK         0.0000 
     44 H44       -45.0768  -39.2796   -2.3481 H         1 UNK         0.0000 
     45 H45       -44.3065  -39.5695   -0.7777 H         1 UNK         0.0000 
     46 H46       -46.7885  -39.9436   -0.6612 H         1 UNK         0.0000 
     47 H47       -45.8632  -41.4072   -0.2681 H         1 UNK         0.0000 
     48 H48       -45.6967  -43.3008   -2.1277 H         1 UNK         0.0000 
     49 H49       -46.5039  -42.9808   -3.6745 H         1 UNK         0.0000 
     50 H50       -44.0016  -42.6708   -3.7610 H         1 UNK         0.0000 
     51 H51       -44.8720  -41.1892   -4.1993 H         1 UNK         0.0000 
     52 H52       -48.6596  -42.3603   -2.7008 H         1 UNK         0.0000 
     53 H53       -48.7609  -41.0534   -1.4775 H         1 UNK         0.0000 
     54 H54       -50.7087  -42.1498   -1.4275 H         1 UNK         0.0000 
     55 H55       -51.2762  -42.3401    0.2262 H         1 UNK         0.0000 
     56 H56       -51.4169  -43.6709   -0.9173 H         1 UNK         0.0000 
     57 H57       -48.6487  -44.7103    1.3151 H         1 UNK         0.0000 
     58 H58       -50.1562  -43.9274    1.7731 H         1 UNK         0.0000 
     59 H59       -50.1655  -45.2322    0.5876 H         1 UNK         0.0000 
     60 H60       -46.9620  -40.7519   -2.9121 H         1 UNK         0.0000 
@<TRIPOS>BOND
     1    1    2 1    
     2    1   32 1    
     3    1   33 1    
     4    1   34 1    
     5    2    3 1    
     6    2   35 1    
     7    2   36 1    
     8    3    8 ar   
     9    3    4 ar   
    10    4    5 ar   
    11    4   37 1    
    12    5    6 ar   
    13    5   10 1    
    14    6    7 ar   
    15    6   38 1    
    16    7    8 ar   
    17    7   39 1    
    18    8    9 2    
    19   10   15 ar   
    20   10   11 ar   
    21   11   12 ar   
    22   11   40 1    
    23   12   13 ar   
    24   12   41 1    
    25   13   14 ar   
    26   14   18 ar   
    27   14   15 ar   
    28   15   16 ar   
    29   16   17 ar   
    30   16   42 1    
    31   17   18 ar   
    32   17   19 1    
    33   18   31 1    
    34   19   24 1    
    35   19   20 1    
    36   19   43 1    
    37   20   21 1    
    38   20   44 1    
    39   20   45 1    
    40   21   22 1    
    41   21   46 1    
    42   21   47 1    
    43   22   23 1    
    44   22   25 1    
    45   22   60 1    
    46   23   24 1    
    47   23   48 1    
    48   23   49 1    
    49   24   50 1    
    50   24   51 1    
    51   25   26 1    
    52   25   52 1    
    53   25   53 1    
    54   26   27 2    
    55   26   28 am   BACKBONE|DICT|INTERRES
    56   28   29 1    
    57   28   30 1    
    58   29   54 1    
    59   29   55 1    
    60   29   56 1    
    61   30   57 1    
    62   30   58 1    
    63   30   59 1    
@<TRIPOS>SUBSTRUCTURE
     1 UNK         1 GROUP             0       ****    0 ROOT    
