@<TRIPOS>MOLECULE
/home/yujie/leadopt/data/result/selection/CDK9/lig_7.sdf:1
56   60    1
SMALL
USER_CHARGES


@<TRIPOS>ATOM
      1 C1        -41.1684  -36.2968   -0.1575 C.3       1 UNK         0.0000 
      2 O2        -40.5509  -36.9988   -1.2324 O.3       1 UNK         0.0000 
      3 C3        -40.0815  -36.3144   -2.3398 C.ar      1 UNK         0.0000 
      4 C4        -40.1784  -34.9182   -2.4805 C.ar      1 UNK         0.0000 
      5 C5        -39.6502  -34.2755   -3.5968 C.ar      1 UNK         0.0000 
      6 C6        -39.0266  -35.0171   -4.5930 C.ar      1 UNK         0.0000 
      7 C7        -38.9356  -36.4013   -4.4741 C.ar      1 UNK         0.0000 
      8 C8        -39.4637  -37.0676   -3.3602 C.ar      1 UNK         0.0000 
      9 C9        -39.3505  -38.5549   -3.2951 C.ar      1 UNK         0.0000 
     10 C10       -38.1116  -39.1916   -3.4556 C.ar      1 UNK         0.0000 
     11 C11       -38.0266  -40.5840   -3.4228 C.ar      1 UNK         0.0000 
     12 N12       -39.0810  -41.4151   -3.2200 N.ar      1 UNK         0.0000 
     13 C13       -40.2499  -40.7978   -3.0582 C.ar      1 UNK         0.0000 
     14 C14       -40.4715  -39.3926   -3.0889 C.ar      1 UNK         0.0000 
     15 C15       -41.8781  -39.2132   -2.8838 C.ar      1 UNK         0.0000 
     16 C16       -42.4544  -40.4629   -2.6931 C.ar      1 UNK         0.0000 
     17 N17       -41.4556  -41.4067   -2.8102 N.pl3     1 UNK         0.0000 
     18 C18       -43.8621  -40.8280   -2.3845 C.ar      1 UNK         0.0000 
     19 C19       -44.1506  -42.0250   -1.7245 C.ar      1 UNK         0.0000 
     20 C20       -45.4688  -42.3637   -1.4475 C.ar      1 UNK         0.0000 
     21 C21       -46.5053  -41.5131   -1.8277 C.ar      1 UNK         0.0000 
     22 C22       -46.2220  -40.3053   -2.4706 C.ar      1 UNK         0.0000 
     23 C23       -44.9003  -39.9669   -2.7497 C.ar      1 UNK         0.0000 
     24 C24       -47.9323  -41.9141   -1.5067 C.3       1 UNK         0.0000 
     25 N25       -48.4925  -42.9231   -2.5374 N.4       1 UNK         0.0000 
     26 C26       -48.9222  -42.2166   -3.8483 C.3       1 UNK         0.0000 
     27 C27       -49.4706  -43.2757   -4.8267 C.3       1 UNK         0.0000 
     28 O28       -50.5222  -44.0183   -4.2172 O.3       1 UNK         0.0000 
     29 C29       -50.1436  -44.7384   -3.0470 C.3       1 UNK         0.0000 
     30 C30       -49.6450  -43.7712   -1.9520 C.3       1 UNK         0.0000 
     31 F31       -39.7397  -32.9329   -3.7217 F         1 UNK         0.0000 
     32 H32       -41.6303  -42.3992   -2.6917 H         1 UNK         0.0000 
     33 H33       -41.4988  -37.0156    0.5940 H         1 UNK         0.0000 
     34 H34       -40.4751  -35.6094    0.3299 H         1 UNK         0.0000 
     35 H35       -42.0496  -35.7448   -0.4869 H         1 UNK         0.0000 
     36 H36       -40.6570  -34.3099   -1.7275 H         1 UNK         0.0000 
     37 H37       -38.6191  -34.5169   -5.4551 H         1 UNK         0.0000 
     38 H38       -38.4540  -36.9586   -5.2645 H         1 UNK         0.0000 
     39 H39       -37.2170  -38.6019   -3.6071 H         1 UNK         0.0000 
     40 H40       -37.0697  -41.0700   -3.5591 H         1 UNK         0.0000 
     41 H41       -42.4111  -38.2746   -2.8300 H         1 UNK         0.0000 
     42 H42       -43.3619  -42.6966   -1.4162 H         1 UNK         0.0000 
     43 H43       -45.6776  -43.2936   -0.9384 H         1 UNK         0.0000 
     44 H44       -47.0140  -39.6268   -2.7555 H         1 UNK         0.0000 
     45 H45       -44.6837  -39.0346   -3.2529 H         1 UNK         0.0000 
     46 H46       -48.6148  -41.0629   -1.4716 H         1 UNK         0.0000 
     47 H47       -47.9596  -42.4072   -0.5309 H         1 UNK         0.0000 
     48 H48       -48.0435  -41.7093   -4.2505 H         1 UNK         0.0000 
     49 H49       -49.6795  -41.4736   -3.5898 H         1 UNK         0.0000 
     50 H50       -49.8727  -42.7904   -5.7161 H         1 UNK         0.0000 
     51 H51       -48.6809  -43.9472   -5.1706 H         1 UNK         0.0000 
     52 H52       -51.0119  -45.2933   -2.6938 H         1 UNK         0.0000 
     53 H53       -49.3814  -45.4806   -3.2944 H         1 UNK         0.0000 
     54 H54       -50.4243  -43.0864   -1.6103 H         1 UNK         0.0000 
     55 H55       -49.2399  -44.3118   -1.0934 H         1 UNK         0.0000 
     56 H56       -47.7438  -43.5630   -2.7708 H         1 UNK         0.0000 
@<TRIPOS>BOND
     1    1    2 1    
     2    1   33 1    
     3    1   34 1    
     4    1   35 1    
     5    2    3 1    
     6    3    8 ar   
     7    3    4 ar   
     8    4    5 ar   
     9    4   36 1    
    10    5    6 ar   
    11    5   31 1    
    12    6    7 ar   
    13    6   37 1    
    14    7    8 ar   
    15    7   38 1    
    16    8    9 1    
    17    9   14 ar   
    18    9   10 ar   
    19   10   11 ar   
    20   10   39 1    
    21   11   12 ar   
    22   11   40 1    
    23   12   13 ar   
    24   13   17 ar   
    25   13   14 ar   
    26   14   15 ar   
    27   15   16 ar   
    28   15   41 1    
    29   16   17 ar   
    30   16   18 1    
    31   17   32 1    
    32   18   23 ar   
    33   18   19 ar   
    34   19   20 ar   
    35   19   42 1    
    36   20   21 ar   
    37   20   43 1    
    38   21   22 ar   
    39   21   24 1    
    40   22   23 ar   
    41   22   44 1    
    42   23   45 1    
    43   24   25 1    
    44   24   46 1    
    45   24   47 1    
    46   25   30 1    
    47   25   26 1    
    48   25   56 1    
    49   26   27 1    
    50   26   48 1    
    51   26   49 1    
    52   27   28 1    
    53   27   50 1    
    54   27   51 1    
    55   28   29 1    
    56   29   30 1    
    57   29   52 1    
    58   29   53 1    
    59   30   54 1    
    60   30   55 1    
@<TRIPOS>SUBSTRUCTURE
     1 UNK         1 GROUP             0       ****    0 ROOT    
