@<TRIPOS>MOLECULE
/home/yujie/leadopt/data/result/selection/CDK9/lig_5.sdf:1
44   47    1
SMALL
USER_CHARGES


@<TRIPOS>ATOM
      1 C1        -41.3043  -36.3262   -0.1966 C.3       1 UNK         0.0000 
      2 O2        -40.6845  -37.0233   -1.2741 O.3       1 UNK         0.0000 
      3 C3        -40.2337  -36.3205   -2.3795 C.ar      1 UNK         0.0000 
      4 C4        -40.3792  -34.9285   -2.5209 C.ar      1 UNK         0.0000 
      5 C5        -39.8573  -34.2672   -3.6294 C.ar      1 UNK         0.0000 
      6 C6        -39.1862  -34.9833   -4.6100 C.ar      1 UNK         0.0000 
      7 C7        -39.0455  -36.3617   -4.4936 C.ar      1 UNK         0.0000 
      8 C8        -39.5672  -37.0451   -3.3882 C.ar      1 UNK         0.0000 
      9 C9        -39.3467  -38.5137   -3.2924 C.ar      1 UNK         0.0000 
     10 C10       -38.0410  -39.0278   -3.3359 C.ar      1 UNK         0.0000 
     11 C11       -37.8197  -40.4006   -3.2090 C.ar      1 UNK         0.0000 
     12 N12       -38.7982  -41.3307   -3.0587 N.ar      1 UNK         0.0000 
     13 C13       -40.0316  -40.8265   -3.0566 C.ar      1 UNK         0.0000 
     14 C14       -40.3905  -39.4597   -3.1493 C.ar      1 UNK         0.0000 
     15 N15       -41.7590  -39.3260   -3.0656 N.2       1 UNK         0.0000 
     16 C16       -42.2134  -40.5490   -2.8969 C.ar      1 UNK         0.0000 
     17 N17       -41.2149  -41.4935   -2.8928 N.pl3     1 UNK         0.0000 
     18 C18       -43.6694  -40.9179   -2.6522 C.3       1 UNK         0.0000 
     19 C19       -44.1472  -42.1294   -3.4921 C.3       1 UNK         0.0000 
     20 C20       -45.6329  -42.4549   -3.2540 C.3       1 UNK         0.0000 
     21 N21       -45.8630  -42.6991   -1.7521 N.4       1 UNK         0.0000 
     22 C22       -45.4362  -41.5034   -0.8844 C.3       1 UNK         0.0000 
     23 C23       -43.9547  -41.1700   -1.1526 C.3       1 UNK         0.0000 
     24 F24       -39.9886  -32.9274   -3.7563 F         1 UNK         0.0000 
     25 H25       -41.3758  -42.4835   -2.7405 H         1 UNK         0.0000 
     26 H26       -41.5806  -37.0385    0.5811 H         1 UNK         0.0000 
     27 H27       -40.6298  -35.5950    0.2499 H         1 UNK         0.0000 
     28 H28       -42.2169  -35.8204   -0.5168 H         1 UNK         0.0000 
     29 H29       -40.8837  -34.3353   -1.7742 H         1 UNK         0.0000 
     30 H30       -38.7673  -34.4654   -5.4566 H         1 UNK         0.0000 
     31 H31       -38.5184  -36.9013   -5.2684 H         1 UNK         0.0000 
     32 H32       -37.1968  -38.3626   -3.4441 H         1 UNK         0.0000 
     33 H33       -36.8118  -40.7856   -3.2217 H         1 UNK         0.0000 
     34 H34       -44.3052  -40.0789   -2.9461 H         1 UNK         0.0000 
     35 H35       -44.0298  -41.9169   -4.5541 H         1 UNK         0.0000 
     36 H36       -43.5725  -43.0235   -3.2425 H         1 UNK         0.0000 
     37 H37       -46.2944  -41.6348   -3.5424 H         1 UNK         0.0000 
     38 H38       -45.9480  -43.3682   -3.7627 H         1 UNK         0.0000 
     39 H39       -46.8417  -42.8921   -1.5856 H         1 UNK         0.0000 
     40 H40       -46.1097  -40.6789   -1.1269 H         1 UNK         0.0000 
     41 H41       -45.6261  -41.8124    0.1414 H         1 UNK         0.0000 
     42 H42       -43.3514  -42.0010   -0.7798 H         1 UNK         0.0000 
     43 H43       -43.7124  -40.2737   -0.5798 H         1 UNK         0.0000 
     44 H44       -45.3607  -43.5351   -1.4673 H         1 UNK         0.0000 
@<TRIPOS>BOND
     1    1    2 1    
     2    1   26 1    
     3    1   27 1    
     4    1   28 1    
     5    2    3 1    
     6    3    8 ar   
     7    3    4 ar   
     8    4    5 ar   
     9    4   29 1    
    10    5    6 ar   
    11    5   24 1    
    12    6    7 ar   
    13    6   30 1    
    14    7    8 ar   
    15    7   31 1    
    16    8    9 1    
    17    9   14 ar   
    18    9   10 ar   
    19   10   11 ar   
    20   10   32 1    
    21   11   12 ar   
    22   11   33 1    
    23   12   13 ar   
    24   13   17 ar   
    25   13   14 ar   
    26   14   15 ar   
    27   15   16 ar   
    28   16   17 ar   
    29   16   18 1    
    30   17   25 1    
    31   18   23 1    
    32   18   19 1    
    33   18   34 1    
    34   19   20 1    
    35   19   35 1    
    36   19   36 1    
    37   20   21 1    
    38   20   37 1    
    39   20   38 1    
    40   21   22 1    
    41   21   39 1    
    42   21   44 1    
    43   22   23 1    
    44   22   40 1    
    45   22   41 1    
    46   23   42 1    
    47   23   43 1    
@<TRIPOS>SUBSTRUCTURE
     1 UNK         1 GROUP             0       ****    0 ROOT    
