@<TRIPOS>MOLECULE
/home/yujie/leadopt/data/result/selection/CDK9/lig_35.sdf:1
58   62    1
SMALL
USER_CHARGES


@<TRIPOS>ATOM
      1 C1        -42.1062  -34.7692   -0.8290 C.3       1 UNK         0.0000 
      2 C2        -41.7437  -34.1551   -2.2001 C.3       1 UNK         0.0000 
      3 C3        -43.0125  -33.8726   -3.0337 C.3       1 UNK         0.0000 
      4 N4        -40.7202  -34.8965   -2.9872 N.pl3     1 UNK         0.0000 
      5 C5        -40.5046  -36.2678   -2.8904 C.ar      1 UNK         0.0000 
      6 C6        -39.5334  -36.9765   -3.5155 C.ar      1 UNK         0.0000 
      7 C7        -38.6513  -36.1748   -4.3570 C.ar      1 UNK         0.0000 
      8 C8        -38.8378  -34.8452   -4.4826 C.ar      1 UNK         0.0000 
      9 C9        -39.9068  -34.1245   -3.8039 C.ar      1 UNK         0.0000 
     10 O10       -40.0169  -32.9127   -4.0124 O.2       1 UNK         0.0000 
     11 C11       -39.3299  -38.4439   -3.3694 C.ar      1 UNK         0.0000 
     12 C12       -38.0298  -38.9671   -3.4568 C.ar      1 UNK         0.0000 
     13 C13       -37.8064  -40.3366   -3.3504 C.ar      1 UNK         0.0000 
     14 N14       -38.7788  -41.2600   -3.1587 N.ar      1 UNK         0.0000 
     15 C15       -40.0101  -40.7618   -3.0579 C.ar      1 UNK         0.0000 
     16 C16       -40.3709  -39.3829   -3.1346 C.ar      1 UNK         0.0000 
     17 C17       -41.7957  -39.3541   -2.9437 C.ar      1 UNK         0.0000 
     18 C18       -42.2230  -40.6460   -2.6580 C.ar      1 UNK         0.0000 
     19 N19       -41.1479  -41.4904   -2.7966 N.pl3     1 UNK         0.0000 
     20 C20       -43.5662  -41.1940   -2.2235 C.3       1 UNK         0.0000 
     21 C21       -44.5054  -40.1546   -1.5739 C.3       1 UNK         0.0000 
     22 C22       -45.8762  -40.7416   -1.1951 C.3       1 UNK         0.0000 
     23 N23       -46.5096  -41.3744   -2.3602 N.3       1 UNK         0.0000 
     24 C24       -45.7045  -42.5184   -2.8054 C.3       1 UNK         0.0000 
     25 C25       -44.2957  -42.0792   -3.2614 C.3       1 UNK         0.0000 
     26 C26       -47.8889  -41.7727   -2.0634 C.3       1 UNK         0.0000 
     27 C27       -48.8129  -40.5768   -1.9065 C.2       1 UNK         0.0000 
     28 N28       -49.5770  -40.4170   -0.8517 N.2       1 UNK         0.0000 
     29 C29       -50.2691  -39.2961   -0.8919 C.2       1 UNK         0.0000 
     30 C30       -50.0806  -38.4990   -2.0150 C.2       1 UNK         0.0000 
     31 S31       -48.9243  -39.2723   -3.0560 S.3       1 UNK         0.0000 
     32 H32       -41.2297  -42.4906   -2.6453 H         1 UNK         0.0000 
     33 H33       -42.7977  -34.1170   -0.2931 H         1 UNK         0.0000 
     34 H34       -41.2279  -34.8829   -0.1918 H         1 UNK         0.0000 
     35 H35       -42.6171  -35.7292   -0.9151 H         1 UNK         0.0000 
     36 H36       -41.3277  -33.1745   -1.9457 H         1 UNK         0.0000 
     37 H37       -43.7808  -33.3931   -2.4246 H         1 UNK         0.0000 
     38 H38       -42.8082  -33.1878   -3.8574 H         1 UNK         0.0000 
     39 H39       -43.4475  -34.7916   -3.4314 H         1 UNK         0.0000 
     40 H40       -41.2168  -36.7426   -2.2357 H         1 UNK         0.0000 
     41 H41       -37.8474  -36.6425   -4.9042 H         1 UNK         0.0000 
     42 H42       -38.1735  -34.2774   -5.1134 H         1 UNK         0.0000 
     43 H43       -37.1792  -38.3164   -3.5973 H         1 UNK         0.0000 
     44 H44       -36.7992  -40.7199   -3.4191 H         1 UNK         0.0000 
     45 H45       -42.4442  -38.4917   -2.9434 H         1 UNK         0.0000 
     46 H46       -43.4220  -41.8909   -1.3938 H         1 UNK         0.0000 
     47 H47       -44.0594  -39.7697   -0.6568 H         1 UNK         0.0000 
     48 H48       -44.6977  -39.3170   -2.2466 H         1 UNK         0.0000 
     49 H49       -45.8005  -41.4501   -0.3674 H         1 UNK         0.0000 
     50 H50       -46.5003  -39.9209   -0.8367 H         1 UNK         0.0000 
     51 H51       -45.6546  -43.2816   -2.0257 H         1 UNK         0.0000 
     52 H52       -46.2047  -42.9840   -3.6562 H         1 UNK         0.0000 
     53 H53       -44.4317  -41.5472   -4.2032 H         1 UNK         0.0000 
     54 H54       -43.7206  -42.9872   -3.4509 H         1 UNK         0.0000 
     55 H55       -48.2616  -42.4030   -2.8718 H         1 UNK         0.0000 
     56 H56       -47.9021  -42.4037   -1.1725 H         1 UNK         0.0000 
     57 H57       -50.9216  -39.0629   -0.0634 H         1 UNK         0.0000 
     58 H58       -50.5262  -37.5457   -2.2569 H         1 UNK         0.0000 
@<TRIPOS>BOND
     1    1    2 1    
     2    1   33 1    
     3    1   34 1    
     4    1   35 1    
     5    2    3 1    
     6    2    4 1    
     7    2   36 1    
     8    3   37 1    
     9    3   38 1    
    10    3   39 1    
    11    4    9 ar   
    12    4    5 ar   
    13    5    6 ar   
    14    5   40 1    
    15    6    7 ar   
    16    6   11 1    
    17    7    8 ar   
    18    7   41 1    
    19    8    9 ar   
    20    8   42 1    
    21    9   10 2    
    22   11   16 ar   
    23   11   12 ar   
    24   12   13 ar   
    25   12   43 1    
    26   13   14 ar   
    27   13   44 1    
    28   14   15 ar   
    29   15   19 ar   
    30   15   16 ar   
    31   16   17 ar   
    32   17   18 ar   
    33   17   45 1    
    34   18   19 ar   
    35   18   20 1    
    36   19   32 1    
    37   20   25 1    
    38   20   21 1    
    39   20   46 1    
    40   21   22 1    
    41   21   47 1    
    42   21   48 1    
    43   22   23 1    
    44   22   49 1    
    45   22   50 1    
    46   23   24 1    
    47   23   26 1    
    48   24   25 1    
    49   24   51 1    
    50   24   52 1    
    51   25   53 1    
    52   25   54 1    
    53   26   27 1    
    54   26   55 1    
    55   26   56 1    
    56   27   31 1    
    57   27   28 2    
    58   28   29 1    
    59   29   30 2    
    60   29   57 1    
    61   30   31 1    
    62   30   58 1    
@<TRIPOS>SUBSTRUCTURE
     1 UNK         1 GROUP             0       ****    0 ROOT    
