@<TRIPOS>MOLECULE
/home/yujie/leadopt/data/result/selection/CDK9/lig_40.sdf:1
50   53    1
SMALL
USER_CHARGES


@<TRIPOS>ATOM
      1 C1        -42.0607  -34.7729   -0.8419 C.3       1 UNK         0.0000 
      2 C2        -41.5759  -34.1638   -2.1786 C.3       1 UNK         0.0000 
      3 C3        -42.7768  -33.7307   -3.0465 C.3       1 UNK         0.0000 
      4 N4        -40.6095  -34.9907   -2.9541 N.pl3     1 UNK         0.0000 
      5 C5        -40.5164  -36.3755   -2.8621 C.ar      1 UNK         0.0000 
      6 C6        -39.6179  -37.1663   -3.4978 C.ar      1 UNK         0.0000 
      7 C7        -38.6845  -36.4498   -4.3586 C.ar      1 UNK         0.0000 
      8 C8        -38.7480  -35.1078   -4.4737 C.ar      1 UNK         0.0000 
      9 C9        -39.7026  -34.2912   -3.7380 C.ar      1 UNK         0.0000 
     10 O10       -39.6312  -33.0657   -3.8589 O.2       1 UNK         0.0000 
     11 C11       -39.5391  -38.6429   -3.3414 C.ar      1 UNK         0.0000 
     12 C12       -38.2960  -39.2866   -3.4564 C.ar      1 UNK         0.0000 
     13 C13       -38.2002  -40.6704   -3.3364 C.ar      1 UNK         0.0000 
     14 N14       -39.2539  -41.4935   -3.1157 N.ar      1 UNK         0.0000 
     15 C15       -40.4324  -40.8785   -3.0072 C.ar      1 UNK         0.0000 
     16 C16       -40.6619  -39.4768   -3.0946 C.ar      1 UNK         0.0000 
     17 C17       -42.0801  -39.3118   -2.9183 C.ar      1 UNK         0.0000 
     18 C18       -42.6550  -40.5616   -2.7043 C.ar      1 UNK         0.0000 
     19 N19       -41.6417  -41.4928   -2.7782 N.pl3     1 UNK         0.0000 
     20 C20       -44.1036  -40.9830   -2.4752 C.3       1 UNK         0.0000 
     21 C21       -44.2769  -42.1363   -1.4558 C.3       1 UNK         0.0000 
     22 C22       -45.7398  -42.6173   -1.4065 C.3       1 UNK         0.0000 
     23 N23       -46.6679  -41.4348   -1.0567 N.4       1 UNK         0.0000 
     24 C24       -46.5034  -40.2273   -2.0004 C.3       1 UNK         0.0000 
     25 C25       -45.0220  -39.8074   -2.0649 C.3       1 UNK         0.0000 
     26 H26       -41.7979  -42.4880   -2.6554 H         1 UNK         0.0000 
     27 H27       -42.6735  -34.0535   -0.2968 H         1 UNK         0.0000 
     28 H28       -41.2299  -35.0358   -0.1866 H         1 UNK         0.0000 
     29 H29       -42.6927  -35.6495   -0.9859 H         1 UNK         0.0000 
     30 H30       -41.0712  -33.2393   -1.8845 H         1 UNK         0.0000 
     31 H31       -43.5066  -33.1804   -2.4514 H         1 UNK         0.0000 
     32 H32       -42.4717  -33.0588   -3.8490 H         1 UNK         0.0000 
     33 H33       -43.2969  -34.5882   -3.4755 H         1 UNK         0.0000 
     34 H34       -41.2413  -36.7848   -2.1784 H         1 UNK         0.0000 
     35 H35       -37.9529  -36.9904   -4.9410 H         1 UNK         0.0000 
     36 H36       -38.0528  -34.5985   -5.1227 H         1 UNK         0.0000 
     37 H37       -37.3912  -38.7198   -3.6208 H         1 UNK         0.0000 
     38 H38       -37.2342  -41.1487   -3.4171 H         1 UNK         0.0000 
     39 H39       -42.6344  -38.3864   -2.9459 H         1 UNK         0.0000 
     40 H40       -44.4754  -41.3561   -3.4320 H         1 UNK         0.0000 
     41 H41       -43.6827  -43.0038   -1.7494 H         1 UNK         0.0000 
     42 H42       -43.9628  -41.8268   -0.4568 H         1 UNK         0.0000 
     43 H43       -46.0789  -43.0014   -2.3703 H         1 UNK         0.0000 
     44 H44       -45.9079  -43.3877   -0.6549 H         1 UNK         0.0000 
     45 H45       -47.6287  -41.7488   -1.0876 H         1 UNK         0.0000 
     46 H46       -46.8861  -40.5447   -2.9721 H         1 UNK         0.0000 
     47 H47       -47.1452  -39.4384   -1.6030 H         1 UNK         0.0000 
     48 H48       -44.7245  -39.4032   -1.0947 H         1 UNK         0.0000 
     49 H49       -44.9628  -39.0098   -2.8075 H         1 UNK         0.0000 
     50 H50       -46.5419  -41.1389   -0.0843 H         1 UNK         0.0000 
@<TRIPOS>BOND
     1    1    2 1    
     2    1   27 1    
     3    1   28 1    
     4    1   29 1    
     5    2    3 1    
     6    2    4 1    
     7    2   30 1    
     8    3   31 1    
     9    3   32 1    
    10    3   33 1    
    11    4    9 ar   
    12    4    5 ar   
    13    5    6 ar   
    14    5   34 1    
    15    6    7 ar   
    16    6   11 1    
    17    7    8 ar   
    18    7   35 1    
    19    8    9 ar   
    20    8   36 1    
    21    9   10 2    
    22   11   16 ar   
    23   11   12 ar   
    24   12   13 ar   
    25   12   37 1    
    26   13   14 ar   
    27   13   38 1    
    28   14   15 ar   
    29   15   19 ar   
    30   15   16 ar   
    31   16   17 ar   
    32   17   18 ar   
    33   17   39 1    
    34   18   19 ar   
    35   18   20 1    
    36   19   26 1    
    37   20   25 1    
    38   20   21 1    
    39   20   40 1    
    40   21   22 1    
    41   21   41 1    
    42   21   42 1    
    43   22   23 1    
    44   22   43 1    
    45   22   44 1    
    46   23   24 1    
    47   23   45 1    
    48   23   50 1    
    49   24   25 1    
    50   24   46 1    
    51   24   47 1    
    52   25   48 1    
    53   25   49 1    
@<TRIPOS>SUBSTRUCTURE
     1 UNK         1 GROUP             0       ****    0 ROOT    
