@<TRIPOS>MOLECULE
/home/yujie/leadopt/data/result/selection/CDK9/lig_10.sdf:1
52   55    1
SMALL
USER_CHARGES


@<TRIPOS>ATOM
      1 C1        -47.7790  -45.1283   -3.5317 C.3       1 UNK         0.0000 
      2 C2        -48.4411  -44.2019   -2.5092 C.2       1 UNK         0.0000 
      3 O3        -49.6285  -44.3578   -2.2362 O.2       1 UNK         0.0000 
      4 N4        -47.7261  -43.2334   -1.9141 N.am      1 UNK         0.0000 
      5 C5        -46.3509  -42.8310   -2.2048 C.3       1 UNK         0.0000 
      6 C6        -46.2283  -41.7905   -3.3353 C.3       1 UNK         0.0000 
      7 C7        -44.7796  -41.3397   -3.6061 C.3       1 UNK         0.0000 
      8 C8        -43.9866  -40.9474   -2.3426 C.3       1 UNK         0.0000 
      9 C9        -44.1339  -41.9886   -1.2118 C.3       1 UNK         0.0000 
     10 C10       -45.6083  -42.3400   -0.9532 C.3       1 UNK         0.0000 
     11 C11       -42.5591  -40.5471   -2.6571 C.ar      1 UNK         0.0000 
     12 N12       -41.5632  -41.4898   -2.7963 N.pl3     1 UNK         0.0000 
     13 C13       -40.3608  -40.8768   -3.0565 C.ar      1 UNK         0.0000 
     14 N14       -39.1897  -41.4927   -3.2201 N.ar      1 UNK         0.0000 
     15 C15       -38.1384  -40.6590   -3.4195 C.ar      1 UNK         0.0000 
     16 C16       -38.2215  -39.2712   -3.4564 C.ar      1 UNK         0.0000 
     17 C17       -39.4618  -38.6350   -3.2937 C.ar      1 UNK         0.0000 
     18 C18       -40.5822  -39.4698   -3.0761 C.ar      1 UNK         0.0000 
     19 C19       -41.9906  -39.2980   -2.8581 C.ar      1 UNK         0.0000 
     20 C20       -39.5467  -37.1502   -3.3731 C.ar      1 UNK         0.0000 
     21 C21       -40.1436  -36.3676   -2.3603 C.ar      1 UNK         0.0000 
     22 C22       -40.1767  -34.9687   -2.5114 C.ar      1 UNK         0.0000 
     23 C23       -39.6068  -34.3562   -3.6243 C.ar      1 UNK         0.0000 
     24 C24       -39.0005  -35.1289   -4.6039 C.ar      1 UNK         0.0000 
     25 C25       -38.9788  -36.5134   -4.4831 C.ar      1 UNK         0.0000 
     26 F26       -39.6307  -33.0122   -3.7581 F         1 UNK         0.0000 
     27 O27       -40.6471  -37.0204   -1.2484 O.3       1 UNK         0.0000 
     28 C28       -41.1706  -36.2631   -0.1591 C.3       1 UNK         0.0000 
     29 H29       -45.8070  -43.7221   -2.5263 H         1 UNK         0.0000 
     30 H30       -44.5242  -40.0803   -1.9517 H         1 UNK         0.0000 
     31 H31       -41.7286  -42.4839   -2.6637 H         1 UNK         0.0000 
     32 H32       -47.0033  -45.7309   -3.0566 H         1 UNK         0.0000 
     33 H33       -47.3325  -44.5575   -4.3452 H         1 UNK         0.0000 
     34 H34       -48.5133  -45.8078   -3.9601 H         1 UNK         0.0000 
     35 H35       -48.2195  -42.6582   -1.2496 H         1 UNK         0.0000 
     36 H36       -46.6643  -42.1783   -4.2553 H         1 UNK         0.0000 
     37 H37       -46.8165  -40.9098   -3.0656 H         1 UNK         0.0000 
     38 H38       -44.2798  -42.1705   -4.1115 H         1 UNK         0.0000 
     39 H39       -44.8308  -40.4726   -4.2566 H         1 UNK         0.0000 
     40 H40       -43.7127  -41.6022   -0.2804 H         1 UNK         0.0000 
     41 H41       -43.6270  -42.9182   -1.4796 H         1 UNK         0.0000 
     42 H42       -46.1141  -41.4591   -0.5592 H         1 UNK         0.0000 
     43 H43       -45.6720  -43.0937   -0.1805 H         1 UNK         0.0000 
     44 H44       -37.1806  -41.1319   -3.5505 H         1 UNK         0.0000 
     45 H45       -37.3246  -38.6888   -3.6219 H         1 UNK         0.0000 
     46 H46       -42.5285  -38.3642   -2.8102 H         1 UNK         0.0000 
     47 H47       -40.6318  -34.3328   -1.7693 H         1 UNK         0.0000 
     48 H48       -38.5466  -34.6511   -5.4565 H         1 UNK         0.0000 
     49 H49       -38.5032  -37.0954   -5.2609 H         1 UNK         0.0000 
     50 H50       -41.4970  -36.9425    0.6295 H         1 UNK         0.0000 
     51 H51       -40.4158  -35.6022    0.2706 H         1 UNK         0.0000 
     52 H52       -42.0359  -35.6695   -0.4587 H         1 UNK         0.0000 
@<TRIPOS>BOND
     1    1    2 1    
     2    1   32 1    
     3    1   33 1    
     4    1   34 1    
     5    2    3 2    
     6    2    4 am   BACKBONE|DICT|INTERRES
     7    4    5 1    
     8    4   35 1    
     9    5   29 1    
    10    5   10 1    
    11    5    6 1    
    12    6    7 1    
    13    6   36 1    
    14    6   37 1    
    15    7    8 1    
    16    7   38 1    
    17    7   39 1    
    18    8   30 1    
    19    8    9 1    
    20    8   11 1    
    21    9   10 1    
    22    9   40 1    
    23    9   41 1    
    24   10   42 1    
    25   10   43 1    
    26   11   19 ar   
    27   11   12 ar   
    28   12   31 1    
    29   12   13 ar   
    30   13   18 ar   
    31   13   14 ar   
    32   14   15 ar   
    33   15   16 ar   
    34   15   44 1    
    35   16   17 ar   
    36   16   45 1    
    37   17   18 ar   
    38   17   20 1    
    39   18   19 ar   
    40   19   46 1    
    41   20   25 ar   
    42   20   21 ar   
    43   21   22 ar   
    44   21   27 1    
    45   22   23 ar   
    46   22   47 1    
    47   23   24 ar   
    48   23   26 1    
    49   24   25 ar   
    50   24   48 1    
    51   25   49 1    
    52   27   28 1    
    53   28   50 1    
    54   28   51 1    
    55   28   52 1    
@<TRIPOS>SUBSTRUCTURE
     1 UNK         1 GROUP             0       ****    0 ROOT    
