@<TRIPOS>MOLECULE
/home/yujie/leadopt/data/result/selection/CDK9/lig_20.sdf:1
69   73    1
SMALL
USER_CHARGES


@<TRIPOS>ATOM
      1 C1        -42.9895  -31.8855   -2.6527 C.3       1 UNK         0.0000 
      2 C2        -42.0617  -33.0621   -2.8330 C.ar      1 UNK         0.0000 
      3 N3        -40.9872  -33.0679   -3.6768 N.pl3     1 UNK         0.0000 
      4 C4        -40.3903  -34.3153   -3.6554 C.ar      1 UNK         0.0000 
      5 C5        -39.3036  -34.8301   -4.3642 C.ar      1 UNK         0.0000 
      6 C6        -39.0223  -36.1838   -4.1789 C.ar      1 UNK         0.0000 
      7 C7        -39.7565  -36.9916   -3.3024 C.ar      1 UNK         0.0000 
      8 C8        -40.7858  -36.4385   -2.5280 C.ar      1 UNK         0.0000 
      9 C9        -41.1172  -35.0969   -2.7386 C.ar      1 UNK         0.0000 
     10 N10       -42.1212  -34.2845   -2.1946 N.pl3     1 UNK         0.0000 
     11 C11       -43.1207  -34.6520   -1.1790 C.3       1 UNK         0.0000 
     12 C12       -42.4598  -35.2170    0.0928 C.3       1 UNK         0.0000 
     13 C13       -44.1834  -35.5919   -1.7774 C.3       1 UNK         0.0000 
     14 C14       -39.4729  -38.4483   -3.2125 C.ar      1 UNK         0.0000 
     15 C15       -38.1609  -38.9446   -3.2009 C.ar      1 UNK         0.0000 
     16 C16       -37.9353  -40.3189   -3.1231 C.ar      1 UNK         0.0000 
     17 N17       -38.9146  -41.2582   -3.0567 N.ar      1 UNK         0.0000 
     18 C18       -40.1582  -40.7707   -3.0633 C.ar      1 UNK         0.0000 
     19 C19       -40.5171  -39.4005   -3.1448 C.ar      1 UNK         0.0000 
     20 C20       -41.9537  -39.3682   -3.1437 C.ar      1 UNK         0.0000 
     21 C21       -42.4240  -40.6663   -3.0308 C.ar      1 UNK         0.0000 
     22 N22       -41.3263  -41.4935   -2.9798 N.pl3     1 UNK         0.0000 
     23 C23       -43.8351  -41.2331   -2.9825 C.3       1 UNK         0.0000 
     24 C24       -44.0821  -42.2412   -1.8435 C.3       1 UNK         0.0000 
     25 C25       -45.5039  -42.8294   -1.8978 C.3       1 UNK         0.0000 
     26 N26       -46.5492  -41.7936   -1.8565 N.3       1 UNK         0.0000 
     27 C27       -46.3633  -40.8079   -2.9355 C.3       1 UNK         0.0000 
     28 C28       -44.9544  -40.1714   -2.9442 C.3       1 UNK         0.0000 
     29 C29       -47.9288  -42.3338   -1.8990 C.3       1 UNK         0.0000 
     30 C30       -48.3848  -43.1633   -0.6565 C.2       1 UNK         0.0000 
     31 O31       -47.5811  -43.4937    0.2185 O.2       1 UNK         0.0000 
     32 N32       -49.6923  -43.5312   -0.5699 N.am      1 UNK         0.0000 
     33 C33       -50.2192  -44.2718    0.5820 C.3       1 UNK         0.0000 
     34 C34       -50.7164  -43.2474   -1.5793 C.3       1 UNK         0.0000 
     35 H35       -41.4228  -42.4973   -2.8705 H         1 UNK         0.0000 
     36 H36       -42.8319  -31.3980   -1.6913 H         1 UNK         0.0000 
     37 H37       -42.8565  -31.1234   -3.4203 H         1 UNK         0.0000 
     38 H38       -44.0294  -32.2010   -2.6940 H         1 UNK         0.0000 
     39 H39       -38.7286  -34.2375   -5.0564 H         1 UNK         0.0000 
     40 H40       -38.2228  -36.6263   -4.7564 H         1 UNK         0.0000 
     41 H41       -41.3357  -37.0521   -1.8322 H         1 UNK         0.0000 
     42 H42       -43.6201  -33.7344   -0.8640 H         1 UNK         0.0000 
     43 H43       -43.1303  -35.0937    0.9434 H         1 UNK         0.0000 
     44 H44       -42.2296  -36.2787    0.0208 H         1 UNK         0.0000 
     45 H45       -41.5368  -34.6935    0.3426 H         1 UNK         0.0000 
     46 H46       -44.9629  -35.8124   -1.0470 H         1 UNK         0.0000 
     47 H47       -44.6666  -35.1470   -2.6480 H         1 UNK         0.0000 
     48 H48       -43.7548  -36.5448   -2.0881 H         1 UNK         0.0000 
     49 H49       -37.3172  -38.2706   -3.2447 H         1 UNK         0.0000 
     50 H50       -36.9223  -40.6933   -3.1066 H         1 UNK         0.0000 
     51 H51       -42.5899  -38.4999   -3.2182 H         1 UNK         0.0000 
     52 H52       -44.0077  -41.7989   -3.9001 H         1 UNK         0.0000 
     53 H53       -43.9367  -41.7931   -0.8585 H         1 UNK         0.0000 
     54 H54       -43.4118  -43.0924   -1.9365 H         1 UNK         0.0000 
     55 H55       -45.6099  -43.4937   -1.0472 H         1 UNK         0.0000 
     56 H56       -45.6328  -43.4497   -2.7869 H         1 UNK         0.0000 
     57 H57       -46.5703  -41.2799   -3.8982 H         1 UNK         0.0000 
     58 H58       -47.1046  -40.0155   -2.8200 H         1 UNK         0.0000 
     59 H59       -44.8977  -39.5411   -3.8329 H         1 UNK         0.0000 
     60 H60       -44.8744  -39.5336   -2.0623 H         1 UNK         0.0000 
     61 H61       -48.0644  -42.9402   -2.7968 H         1 UNK         0.0000 
     62 H62       -48.6136  -41.4864   -1.9609 H         1 UNK         0.0000 
     63 H63       -50.6289  -45.2293    0.2588 H         1 UNK         0.0000 
     64 H64       -51.0207  -43.7068    1.0594 H         1 UNK         0.0000 
     65 H65       -49.4658  -44.4773    1.3453 H         1 UNK         0.0000 
     66 H66       -51.1703  -44.1793   -1.9190 H         1 UNK         0.0000 
     67 H67       -51.5072  -42.6326   -1.1452 H         1 UNK         0.0000 
     68 H68       -50.3459  -42.7314   -2.4644 H         1 UNK         0.0000 
     69 H69       -40.7477  -32.2589   -4.2251 H         1 UNK         0.0000 
@<TRIPOS>BOND
     1    1    2 1    
     2    1   36 1    
     3    1   37 1    
     4    1   38 1    
     5    2   10 ar   
     6    2    3 ar   
     7    3    4 ar   
     8    3   69 1    
     9    4    9 ar   
    10    4    5 ar   
    11    5    6 ar   
    12    5   39 1    
    13    6    7 ar   
    14    6   40 1    
    15    7    8 ar   
    16    7   14 1    
    17    8    9 ar   
    18    8   41 1    
    19    9   10 ar   
    20   10   11 1    
    21   11   12 1    
    22   11   13 1    
    23   11   42 1    
    24   12   43 1    
    25   12   44 1    
    26   12   45 1    
    27   13   46 1    
    28   13   47 1    
    29   13   48 1    
    30   14   19 ar   
    31   14   15 ar   
    32   15   16 ar   
    33   15   49 1    
    34   16   17 ar   
    35   16   50 1    
    36   17   18 ar   
    37   18   22 ar   
    38   18   19 ar   
    39   19   20 ar   
    40   20   21 ar   
    41   20   51 1    
    42   21   22 ar   
    43   21   23 1    
    44   22   35 1    
    45   23   28 1    
    46   23   24 1    
    47   23   52 1    
    48   24   25 1    
    49   24   53 1    
    50   24   54 1    
    51   25   26 1    
    52   25   55 1    
    53   25   56 1    
    54   26   27 1    
    55   26   29 1    
    56   27   28 1    
    57   27   57 1    
    58   27   58 1    
    59   28   59 1    
    60   28   60 1    
    61   29   30 1    
    62   29   61 1    
    63   29   62 1    
    64   30   31 2    
    65   30   32 am   BACKBONE|DICT|INTERRES
    66   32   33 1    
    67   32   34 1    
    68   33   63 1    
    69   33   64 1    
    70   33   65 1    
    71   34   66 1    
    72   34   67 1    
    73   34   68 1    
@<TRIPOS>SUBSTRUCTURE
     1 UNK         1 GROUP             0       ****    0 ROOT    
