@<TRIPOS>MOLECULE
/home/yujie/leadopt/data/result/selection/CDK9/lig_22.sdf:1
61   64    1
SMALL
USER_CHARGES


@<TRIPOS>ATOM
      1 C1        -37.8764  -34.2238   -4.6570 C.3       1 UNK         0.0000 
      2 N2        -38.8290  -34.9750   -3.8463 N.pl3     1 UNK         0.0000 
      3 C3        -38.7718  -36.3426   -3.7536 C.ar      1 UNK         0.0000 
      4 C4        -39.5808  -37.1243   -3.0028 C.ar      1 UNK         0.0000 
      5 C5        -40.5196  -36.3959   -2.1315 C.ar      1 UNK         0.0000 
      6 C6        -40.5979  -35.0396   -2.2582 C.ar      1 UNK         0.0000 
      7 C7        -39.8414  -34.2707   -3.2384 C.ar      1 UNK         0.0000 
      8 O8        -40.1256  -33.1011   -3.5044 O.2       1 UNK         0.0000 
      9 O9        -41.1571  -37.0946   -1.1486 O.3       1 UNK         0.0000 
     10 C10       -41.9229  -36.4038   -0.1621 C.3       1 UNK         0.0000 
     11 C11       -39.4932  -38.6084   -3.1055 C.ar      1 UNK         0.0000 
     12 C12       -38.2621  -39.2376   -3.3554 C.ar      1 UNK         0.0000 
     13 C13       -38.1825  -40.6260   -3.4412 C.ar      1 UNK         0.0000 
     14 N14       -39.2324  -41.4709   -3.2902 N.ar      1 UNK         0.0000 
     15 C15       -40.4003  -40.8669   -3.0716 C.ar      1 UNK         0.0000 
     16 C16       -40.6180  -39.4625   -2.9891 C.ar      1 UNK         0.0000 
     17 C17       -42.0320  -39.3061   -2.8114 C.ar      1 UNK         0.0000 
     18 C18       -42.5981  -40.5619   -2.6572 C.ar      1 UNK         0.0000 
     19 N19       -41.6046  -41.4933   -2.8509 N.pl3     1 UNK         0.0000 
     20 C20       -44.0085  -40.9808   -2.2967 C.3       1 UNK         0.0000 
     21 C21       -44.7515  -39.8658   -1.5335 C.3       1 UNK         0.0000 
     22 C22       -46.1220  -40.3483   -1.0566 C.3       1 UNK         0.0000 
     23 N23       -46.9543  -40.7774   -2.2852 N.4       1 UNK         0.0000 
     24 C24       -46.2555  -41.9080   -3.0824 C.3       1 UNK         0.0000 
     25 C25       -44.8499  -41.4339   -3.5106 C.3       1 UNK         0.0000 
     26 C26       -48.3968  -41.1703   -1.8547 C.3       1 UNK         0.0000 
     27 C27       -49.4404  -40.4928   -2.7727 C.2       1 UNK         0.0000 
     28 O28       -49.0573  -39.8045   -3.7250 O.2       1 UNK         0.0000 
     29 N29       -50.7585  -40.6621   -2.4909 N.am      1 UNK         0.0000 
     30 C30       -51.8144  -40.0028   -3.2660 C.3       1 UNK         0.0000 
     31 C31       -51.2824  -41.5277   -1.4290 C.3       1 UNK         0.0000 
     32 H32       -41.7645  -42.4919   -2.7709 H         1 UNK         0.0000 
     33 H33       -37.6295  -34.8071   -5.5368 H         1 UNK         0.0000 
     34 H34       -38.2658  -33.2732   -5.0114 H         1 UNK         0.0000 
     35 H35       -36.9597  -34.0432   -4.0948 H         1 UNK         0.0000 
     36 H36       -38.0765  -36.7506   -4.4742 H         1 UNK         0.0000 
     37 H37       -41.2292  -34.4488   -1.6129 H         1 UNK         0.0000 
     38 H38       -42.3292  -37.1281    0.5430 H         1 UNK         0.0000 
     39 H39       -41.3129  -35.7010    0.4090 H         1 UNK         0.0000 
     40 H40       -42.7666  -35.8711   -0.6032 H         1 UNK         0.0000 
     41 H41       -37.3560  -38.6578   -3.4571 H         1 UNK         0.0000 
     42 H42       -37.2299  -41.0934   -3.6283 H         1 UNK         0.0000 
     43 H43       -42.5737  -38.3762   -2.7294 H         1 UNK         0.0000 
     44 H44       -43.9476  -41.8328   -1.6139 H         1 UNK         0.0000 
     45 H45       -44.8895  -38.9822   -2.1589 H         1 UNK         0.0000 
     46 H46       -44.1828  -39.5767   -0.6484 H         1 UNK         0.0000 
     47 H47       -46.6697  -39.5484   -0.5538 H         1 UNK         0.0000 
     48 H48       -46.0345  -41.2133   -0.3944 H         1 UNK         0.0000 
     49 H49       -46.2084  -42.7839   -2.4307 H         1 UNK         0.0000 
     50 H50       -46.8898  -42.1326   -3.9416 H         1 UNK         0.0000 
     51 H51       -44.3601  -42.2659   -4.0189 H         1 UNK         0.0000 
     52 H52       -44.9704  -40.6127   -4.2163 H         1 UNK         0.0000 
     53 H53       -48.5407  -40.8143   -0.8314 H         1 UNK         0.0000 
     54 H54       -48.4650  -42.2593   -1.8698 H         1 UNK         0.0000 
     55 H55       -51.4318  -39.2459   -3.9500 H         1 UNK         0.0000 
     56 H56       -52.5165  -39.5018   -2.5984 H         1 UNK         0.0000 
     57 H57       -52.3707  -40.7360   -3.8500 H         1 UNK         0.0000 
     58 H58       -50.5170  -42.0358   -0.8423 H         1 UNK         0.0000 
     59 H59       -51.8880  -40.9431   -0.7341 H         1 UNK         0.0000 
     60 H60       -51.9255  -42.2979   -1.8586 H         1 UNK         0.0000 
     61 H61       -47.0388  -39.9636   -2.8838 H         1 UNK         0.0000 
@<TRIPOS>BOND
     1    1    2 1    
     2    1   33 1    
     3    1   34 1    
     4    1   35 1    
     5    2    7 ar   
     6    2    3 ar   
     7    3    4 ar   
     8    3   36 1    
     9    4    5 ar   
    10    4   11 1    
    11    5    6 ar   
    12    5    9 1    
    13    6    7 ar   
    14    6   37 1    
    15    7    8 2    
    16    9   10 1    
    17   10   38 1    
    18   10   39 1    
    19   10   40 1    
    20   11   16 ar   
    21   11   12 ar   
    22   12   13 ar   
    23   12   41 1    
    24   13   14 ar   
    25   13   42 1    
    26   14   15 ar   
    27   15   19 ar   
    28   15   16 ar   
    29   16   17 ar   
    30   17   18 ar   
    31   17   43 1    
    32   18   19 ar   
    33   18   20 1    
    34   19   32 1    
    35   20   25 1    
    36   20   21 1    
    37   20   44 1    
    38   21   22 1    
    39   21   45 1    
    40   21   46 1    
    41   22   23 1    
    42   22   47 1    
    43   22   48 1    
    44   23   24 1    
    45   23   26 1    
    46   23   61 1    
    47   24   25 1    
    48   24   49 1    
    49   24   50 1    
    50   25   51 1    
    51   25   52 1    
    52   26   27 1    
    53   26   53 1    
    54   26   54 1    
    55   27   28 2    
    56   27   29 am   BACKBONE|DICT|INTERRES
    57   29   30 1    
    58   29   31 1    
    59   30   55 1    
    60   30   56 1    
    61   30   57 1    
    62   31   58 1    
    63   31   59 1    
    64   31   60 1    
@<TRIPOS>SUBSTRUCTURE
     1 UNK         1 GROUP             0       ****    0 ROOT    
