@<TRIPOS>MOLECULE
/home/yujie/leadopt/data/result/selection/CDK9/lig_28.sdf:1
68   72    1
SMALL
USER_CHARGES


@<TRIPOS>ATOM
      1 C1        -49.3818  -45.5203   -0.3677 C.3       1 UNK         0.0000 
      2 N2        -48.6120  -45.8281   -1.5737 N.am      1 UNK         0.0000 
      3 C3        -48.6984  -47.2359   -1.9770 C.3       1 UNK         0.0000 
      4 C4        -47.8394  -44.9446   -2.2581 C.2       1 UNK         0.0000 
      5 O5        -47.3473  -45.2310   -3.3488 O.2       1 UNK         0.0000 
      6 C6        -47.5547  -43.5450   -1.6587 C.3       1 UNK         0.0000 
      7 N7        -46.0923  -43.0934   -1.9542 N.4       1 UNK         0.0000 
      8 C8        -45.6525  -42.0318   -0.9084 C.3       1 UNK         0.0000 
      9 C9        -44.1838  -41.6343   -1.1578 C.3       1 UNK         0.0000 
     10 C10       -43.9763  -41.1021   -2.5941 C.3       1 UNK         0.0000 
     11 C11       -44.4226  -42.1991   -3.5898 C.3       1 UNK         0.0000 
     12 C12       -45.9096  -42.5332   -3.3898 C.3       1 UNK         0.0000 
     13 C13       -42.5573  -40.6127   -2.8261 C.ar      1 UNK         0.0000 
     14 C14       -42.0340  -39.3466   -3.0579 C.ar      1 UNK         0.0000 
     15 C15       -40.6012  -39.4614   -3.1780 C.ar      1 UNK         0.0000 
     16 C16       -39.5005  -38.5965   -3.4066 C.ar      1 UNK         0.0000 
     17 C17       -38.2306  -39.1951   -3.4567 C.ar      1 UNK         0.0000 
     18 C18       -38.0892  -40.5734   -3.2914 C.ar      1 UNK         0.0000 
     19 N19       -39.1189  -41.4299   -3.0836 N.ar      1 UNK         0.0000 
     20 C20       -40.3184  -40.8477   -3.0419 C.ar      1 UNK         0.0000 
     21 N21       -41.5059  -41.4935   -2.8185 N.pl3     1 UNK         0.0000 
     22 C22       -39.6332  -37.1300   -3.6047 C.ar      1 UNK         0.0000 
     23 C23       -38.7420  -36.4111   -4.5061 C.ar      1 UNK         0.0000 
     24 C24       -38.8289  -35.0715   -4.6284 C.ar      1 UNK         0.0000 
     25 C25       -39.7439  -34.2632   -3.8350 C.ar      1 UNK         0.0000 
     26 O26       -39.6306  -33.0363   -3.8941 O.2       1 UNK         0.0000 
     27 N27       -40.6558  -34.9677   -3.0572 N.pl3     1 UNK         0.0000 
     28 C28       -40.5326  -36.3511   -2.9556 C.ar      1 UNK         0.0000 
     29 C29       -41.5917  -34.1206   -2.2538 C.3       1 UNK         0.0000 
     30 C30       -42.7186  -33.4733   -3.1026 C.3       1 UNK         0.0000 
     31 C31       -43.8721  -34.4469   -3.4022 C.3       1 UNK         0.0000 
     32 O32       -44.4376  -34.8734   -2.1664 O.3       1 UNK         0.0000 
     33 C33       -43.5357  -35.6151   -1.3480 C.3       1 UNK         0.0000 
     34 C34       -42.2720  -34.7821   -1.0189 C.3       1 UNK         0.0000 
     35 H35       -41.6305  -42.4863   -2.6563 H         1 UNK         0.0000 
     36 H36       -48.9142  -45.9746    0.5068 H         1 UNK         0.0000 
     37 H37       -50.3871  -45.9326   -0.4569 H         1 UNK         0.0000 
     38 H38       -49.5051  -44.4530   -0.1800 H         1 UNK         0.0000 
     39 H39       -49.7220  -47.4953   -2.2433 H         1 UNK         0.0000 
     40 H40       -48.0570  -47.4838   -2.8263 H         1 UNK         0.0000 
     41 H41       -48.3865  -47.8805   -1.1551 H         1 UNK         0.0000 
     42 H42       -48.2124  -42.7761   -2.0665 H         1 UNK         0.0000 
     43 H43       -47.6473  -43.5457   -0.5728 H         1 UNK         0.0000 
     44 H44       -46.3324  -41.1807   -0.9955 H         1 UNK         0.0000 
     45 H45       -45.7808  -42.4685    0.0815 H         1 UNK         0.0000 
     46 H46       -43.9255  -40.8605   -0.4341 H         1 UNK         0.0000 
     47 H47       -43.5560  -42.5081   -0.9693 H         1 UNK         0.0000 
     48 H48       -44.6452  -40.2497   -2.7323 H         1 UNK         0.0000 
     49 H49       -43.8344  -43.1092   -3.4552 H         1 UNK         0.0000 
     50 H50       -44.3056  -41.8885   -4.6267 H         1 UNK         0.0000 
     51 H51       -46.2274  -43.2820   -4.1123 H         1 UNK         0.0000 
     52 H52       -46.5527  -41.6560   -3.4892 H         1 UNK         0.0000 
     53 H53       -42.6292  -38.4508   -3.1301 H         1 UNK         0.0000 
     54 H54       -37.3442  -38.5954   -3.6108 H         1 UNK         0.0000 
     55 H55       -37.1086  -41.0265   -3.3243 H         1 UNK         0.0000 
     56 H56       -38.0308  -36.9525   -5.1129 H         1 UNK         0.0000 
     57 H57       -38.1735  -34.5571   -5.3137 H         1 UNK         0.0000 
     58 H58       -41.1918  -36.7723   -2.2183 H         1 UNK         0.0000 
     59 H59       -40.9920  -33.2990   -1.8570 H         1 UNK         0.0000 
     60 H60       -43.1149  -32.6136   -2.5586 H         1 UNK         0.0000 
     61 H61       -42.3266  -33.0511   -4.0275 H         1 UNK         0.0000 
     62 H62       -44.6455  -33.9475   -3.9851 H         1 UNK         0.0000 
     63 H63       -43.5351  -35.2995   -3.9941 H         1 UNK         0.0000 
     64 H64       -44.0489  -35.8820   -0.4241 H         1 UNK         0.0000 
     65 H65       -43.2952  -36.5571   -1.8368 H         1 UNK         0.0000 
     66 H66       -41.5561  -35.3657   -0.4413 H         1 UNK         0.0000 
     67 H67       -42.5637  -33.9809   -0.3376 H         1 UNK         0.0000 
     68 H68       -45.5034  -43.9216   -1.8556 H         1 UNK         0.0000 
@<TRIPOS>BOND
     1    1    2 1    
     2    1   36 1    
     3    1   37 1    
     4    1   38 1    
     5    2    3 1    
     6    2    4 am   BACKBONE|DICT|INTERRES
     7    3   39 1    
     8    3   40 1    
     9    3   41 1    
    10    4    5 2    
    11    4    6 1    
    12    6    7 1    
    13    6   42 1    
    14    6   43 1    
    15    7   12 1    
    16    7    8 1    
    17    7   68 1    
    18    8    9 1    
    19    8   44 1    
    20    8   45 1    
    21    9   10 1    
    22    9   46 1    
    23    9   47 1    
    24   10   11 1    
    25   10   13 1    
    26   10   48 1    
    27   11   12 1    
    28   11   49 1    
    29   11   50 1    
    30   12   51 1    
    31   12   52 1    
    32   13   21 ar   
    33   13   14 ar   
    34   14   15 ar   
    35   14   53 1    
    36   15   20 ar   
    37   15   16 ar   
    38   16   17 ar   
    39   16   22 1    
    40   17   18 ar   
    41   17   54 1    
    42   18   19 ar   
    43   18   55 1    
    44   19   20 ar   
    45   20   21 ar   
    46   21   35 1    
    47   22   28 ar   
    48   22   23 ar   
    49   23   24 ar   
    50   23   56 1    
    51   24   25 ar   
    52   24   57 1    
    53   25   26 2    
    54   25   27 ar   
    55   27   28 ar   
    56   27   29 1    
    57   28   58 1    
    58   29   34 1    
    59   29   30 1    
    60   29   59 1    
    61   30   31 1    
    62   30   60 1    
    63   30   61 1    
    64   31   32 1    
    65   31   62 1    
    66   31   63 1    
    67   32   33 1    
    68   33   34 1    
    69   33   64 1    
    70   33   65 1    
    71   34   66 1    
    72   34   67 1    
@<TRIPOS>SUBSTRUCTURE
     1 UNK         1 GROUP             0       ****    0 ROOT    
