/home/yujie/leadopt/data/result/selection/CDK9/lig_7.sdf:1
                    3D
 Schrodinger Suite 2020-3.
 56 60  0  0  1  0            999 V2000
  -41.1684  -36.2968   -0.1575 C   0  0  0  0  0  0
  -40.5509  -36.9988   -1.2324 O   0  0  0  0  0  0
  -40.0815  -36.3144   -2.3398 C   0  0  0  0  0  0
  -40.1784  -34.9182   -2.4805 C   0  0  0  0  0  0
  -39.6502  -34.2755   -3.5968 C   0  0  0  0  0  0
  -39.0266  -35.0171   -4.5930 C   0  0  0  0  0  0
  -38.9356  -36.4013   -4.4741 C   0  0  0  0  0  0
  -39.4637  -37.0676   -3.3602 C   0  0  0  0  0  0
  -39.3505  -38.5549   -3.2951 C   0  0  0  0  0  0
  -38.1116  -39.1916   -3.4556 C   0  0  0  0  0  0
  -38.0266  -40.5840   -3.4228 C   0  0  0  0  0  0
  -39.0810  -41.4151   -3.2200 N   0  0  0  0  0  0
  -40.2499  -40.7978   -3.0582 C   0  0  0  0  0  0
  -40.4715  -39.3926   -3.0889 C   0  0  0  0  0  0
  -41.8781  -39.2132   -2.8838 C   0  0  0  0  0  0
  -42.4544  -40.4629   -2.6931 C   0  0  0  0  0  0
  -41.4556  -41.4067   -2.8102 N   0  0  0  0  0  0
  -43.8621  -40.8280   -2.3845 C   0  0  0  0  0  0
  -44.1506  -42.0250   -1.7245 C   0  0  0  0  0  0
  -45.4688  -42.3637   -1.4475 C   0  0  0  0  0  0
  -46.5053  -41.5131   -1.8277 C   0  0  0  0  0  0
  -46.2220  -40.3053   -2.4706 C   0  0  0  0  0  0
  -44.9003  -39.9669   -2.7497 C   0  0  0  0  0  0
  -47.9323  -41.9141   -1.5067 C   0  0  0  0  0  0
  -48.4925  -42.9231   -2.5374 N   0  3  0  0  0  0
  -48.9222  -42.2166   -3.8483 C   0  0  0  0  0  0
  -49.4706  -43.2757   -4.8267 C   0  0  0  0  0  0
  -50.5222  -44.0183   -4.2172 O   0  0  0  0  0  0
  -50.1436  -44.7384   -3.0470 C   0  0  0  0  0  0
  -49.6450  -43.7712   -1.9520 C   0  0  0  0  0  0
  -39.7397  -32.9329   -3.7217 F   0  0  0  0  0  0
  -41.6303  -42.3992   -2.6917 H   0  0  0  0  0  0
  -41.4988  -37.0156    0.5940 H   0  0  0  0  0  0
  -40.4751  -35.6094    0.3299 H   0  0  0  0  0  0
  -42.0496  -35.7448   -0.4869 H   0  0  0  0  0  0
  -40.6570  -34.3099   -1.7275 H   0  0  0  0  0  0
  -38.6191  -34.5169   -5.4551 H   0  0  0  0  0  0
  -38.4540  -36.9586   -5.2645 H   0  0  0  0  0  0
  -37.2170  -38.6019   -3.6071 H   0  0  0  0  0  0
  -37.0697  -41.0700   -3.5591 H   0  0  0  0  0  0
  -42.4111  -38.2746   -2.8300 H   0  0  0  0  0  0
  -43.3619  -42.6966   -1.4162 H   0  0  0  0  0  0
  -45.6776  -43.2936   -0.9384 H   0  0  0  0  0  0
  -47.0140  -39.6268   -2.7555 H   0  0  0  0  0  0
  -44.6837  -39.0346   -3.2529 H   0  0  0  0  0  0
  -48.6148  -41.0629   -1.4716 H   0  0  0  0  0  0
  -47.9596  -42.4072   -0.5309 H   0  0  0  0  0  0
  -48.0435  -41.7093   -4.2505 H   0  0  0  0  0  0
  -49.6795  -41.4736   -3.5898 H   0  0  0  0  0  0
  -49.8727  -42.7904   -5.7161 H   0  0  0  0  0  0
  -48.6809  -43.9472   -5.1706 H   0  0  0  0  0  0
  -51.0119  -45.2933   -2.6938 H   0  0  0  0  0  0
  -49.3814  -45.4806   -3.2944 H   0  0  0  0  0  0
  -50.4243  -43.0864   -1.6103 H   0  0  0  0  0  0
  -49.2399  -44.3118   -1.0934 H   0  0  0  0  0  0
  -47.7438  -43.5630   -2.7708 H   0  0  0  0  0  0
  1  2  1  0  0  0
  1 33  1  0  0  0
  1 34  1  0  0  0
  1 35  1  0  0  0
  2  3  1  0  0  0
  3  8  1  0  0  0
  3  4  2  0  0  0
  4  5  1  0  0  0
  4 36  1  0  0  0
  5  6  2  0  0  0
  5 31  1  0  0  0
  6  7  1  0  0  0
  6 37  1  0  0  0
  7  8  2  0  0  0
  7 38  1  0  0  0
  8  9  1  0  0  0
  9 14  1  0  0  0
  9 10  2  0  0  0
 10 11  1  0  0  0
 10 39  1  0  0  0
 11 12  2  0  0  0
 11 40  1  0  0  0
 12 13  1  0  0  0
 13 17  1  0  0  0
 13 14  2  0  0  0
 14 15  1  0  0  0
 15 16  2  0  0  0
 15 41  1  0  0  0
 16 17  1  0  0  0
 16 18  1  0  0  0
 17 32  1  0  0  0
 18 23  1  0  0  0
 18 19  2  0  0  0
 19 20  1  0  0  0
 19 42  1  0  0  0
 20 21  2  0  0  0
 20 43  1  0  0  0
 21 22  1  0  0  0
 21 24  1  0  0  0
 22 23  2  0  0  0
 22 44  1  0  0  0
 23 45  1  0  0  0
 24 25  1  0  0  0
 24 46  1  0  0  0
 24 47  1  0  0  0
 25 30  1  0  0  0
 25 26  1  0  0  0
 25 56  1  0  0  0
 26 27  1  0  0  0
 26 48  1  0  0  0
 26 49  1  0  0  0
 27 28  1  0  0  0
 27 50  1  0  0  0
 27 51  1  0  0  0
 28 29  1  0  0  0
 29 30  1  0  0  0
 29 52  1  0  0  0
 29 53  1  0  0  0
 30 54  1  0  0  0
 30 55  1  0  0  0
M  CHG  1  25   1
M  END
> <s_m_source_file>
/home/yujie/leadopt/data/result/selection/CDK9/lig_7.sdf

> <i_m_source_file_index>
1

> <i_lp_mmshare_version>
51139

> <i_f3d_flags>
0

> <s_epik_input>
W0NIM11PYzFbY0hdYyhGKVtjSF1bY0hdYzEtYyhbY0hdW2NIXW4yKWMoYzIzKVtjSF1jKFtuSF0zKS1jNFtjSF1bY0hdYyhbY0hdW2NIXTQpW0NIMl1ONVtDSDJdW0NIMl1PW0NIMl1bQ0gyXTU=

> <s_epik_cmdline>
J2VwaWtfcHl0aG9uJywgJy1waHQnLCAnMi4wJywgJy1waCcsICc3LjAnLCAnLXRuJywgJzgnLCAnLW1hJywgJzIwMCcsICctaW1hZScsICc8aW5maWxlLm1hZT4nLCAnLW9tYWUnLCAnPG91dGZpbGUubWFlPic=

> <r_lp_tautomer_probability>
0.999998

> <r_epik_Ionization_Penalty>
  0.5720

> <r_epik_Ionization_Penalty_Charging>
  0.5711

> <r_epik_Ionization_Penalty_Neutral>
  0.0010

> <r_epik_State_Penalty>
  0.5830

> <r_epik_Charging_Adjusted_Penalty>
1.15411

> <i_epik_Tot_Q>
1

> <i_epik_Tot_abs_Q>
1

> <s_lp_Force_Field>
OPLS3e

> <r_lp_Energy>
49.4407

> <b_lp_Chiralities_Consistent>
1

> <s_lp_Variant>
/home/yujie/leadopt/data/result/selection/CDK9/lig_7.sdf:1-2

> <s_i_glide_gridfile>
glide-grid_CDK9

> <i_i_glide_lignum>
2

> <i_i_glide_rotatable_bonds>
5

> <r_i_docking_score>
-8.43022385711341

> <r_i_glide_ligand_efficiency>
-0.271942705068174

> <r_i_glide_ligand_efficiency_sa>
-0.854275551282285

> <r_i_glide_ligand_efficiency_ln>
-1.90127383511299

> <r_i_glide_gscore>
-9.01326185711341

> <r_i_glide_lipo>
-3.21534962315193

> <r_i_glide_hbond>
-0.571291693219573

> <r_i_glide_metal>
-0

> <r_i_glide_rewards>
-2.0834418678016

> <r_i_glide_evdw>
-43.6718444824219

> <r_i_glide_ecoul>
-7.77071619033813

> <r_i_glide_erotb>
0.316163117862386

> <r_i_glide_esite>
-0.11014213813088

> <r_i_glide_emodel>
-85.1860423424009

> <r_i_glide_energy>
-51.44256067276

> <r_i_glide_einternal>
2.00987362861633

> <i_i_glide_confnum>
32

> <i_i_glide_posenum>
373

> <r_i_glide_eff_state_penalty>
0.583038

$$$$
