/home/yujie/leadopt/data/result/selection/CDK9/lig_40.sdf:1
                    3D
 Schrodinger Suite 2020-3.
 50 53  0  0  1  0            999 V2000
  -42.0607  -34.7729   -0.8419 C   0  0  0  0  0  0
  -41.5759  -34.1638   -2.1786 C   0  0  0  0  0  0
  -42.7768  -33.7307   -3.0465 C   0  0  0  0  0  0
  -40.6095  -34.9907   -2.9541 N   0  0  0  0  0  0
  -40.5164  -36.3755   -2.8621 C   0  0  0  0  0  0
  -39.6179  -37.1663   -3.4978 C   0  0  0  0  0  0
  -38.6845  -36.4498   -4.3586 C   0  0  0  0  0  0
  -38.7480  -35.1078   -4.4737 C   0  0  0  0  0  0
  -39.7026  -34.2912   -3.7380 C   0  0  0  0  0  0
  -39.6312  -33.0657   -3.8589 O   0  0  0  0  0  0
  -39.5391  -38.6429   -3.3414 C   0  0  0  0  0  0
  -38.2960  -39.2866   -3.4564 C   0  0  0  0  0  0
  -38.2002  -40.6704   -3.3364 C   0  0  0  0  0  0
  -39.2539  -41.4935   -3.1157 N   0  0  0  0  0  0
  -40.4324  -40.8785   -3.0072 C   0  0  0  0  0  0
  -40.6619  -39.4768   -3.0946 C   0  0  0  0  0  0
  -42.0801  -39.3118   -2.9183 C   0  0  0  0  0  0
  -42.6550  -40.5616   -2.7043 C   0  0  0  0  0  0
  -41.6417  -41.4928   -2.7782 N   0  0  0  0  0  0
  -44.1036  -40.9830   -2.4752 C   0  0  0  0  0  0
  -44.2769  -42.1363   -1.4558 C   0  0  0  0  0  0
  -45.7398  -42.6173   -1.4065 C   0  0  0  0  0  0
  -46.6679  -41.4348   -1.0567 N   0  3  0  0  0  0
  -46.5034  -40.2273   -2.0004 C   0  0  0  0  0  0
  -45.0220  -39.8074   -2.0649 C   0  0  0  0  0  0
  -41.7979  -42.4880   -2.6554 H   0  0  0  0  0  0
  -42.6735  -34.0535   -0.2968 H   0  0  0  0  0  0
  -41.2299  -35.0358   -0.1866 H   0  0  0  0  0  0
  -42.6927  -35.6495   -0.9859 H   0  0  0  0  0  0
  -41.0712  -33.2393   -1.8845 H   0  0  0  0  0  0
  -43.5066  -33.1804   -2.4514 H   0  0  0  0  0  0
  -42.4717  -33.0588   -3.8490 H   0  0  0  0  0  0
  -43.2969  -34.5882   -3.4755 H   0  0  0  0  0  0
  -41.2413  -36.7848   -2.1784 H   0  0  0  0  0  0
  -37.9529  -36.9904   -4.9410 H   0  0  0  0  0  0
  -38.0528  -34.5985   -5.1227 H   0  0  0  0  0  0
  -37.3912  -38.7198   -3.6208 H   0  0  0  0  0  0
  -37.2342  -41.1487   -3.4171 H   0  0  0  0  0  0
  -42.6344  -38.3864   -2.9459 H   0  0  0  0  0  0
  -44.4754  -41.3561   -3.4320 H   0  0  0  0  0  0
  -43.6827  -43.0038   -1.7494 H   0  0  0  0  0  0
  -43.9628  -41.8268   -0.4568 H   0  0  0  0  0  0
  -46.0789  -43.0014   -2.3703 H   0  0  0  0  0  0
  -45.9079  -43.3877   -0.6549 H   0  0  0  0  0  0
  -47.6287  -41.7488   -1.0876 H   0  0  0  0  0  0
  -46.8861  -40.5447   -2.9721 H   0  0  0  0  0  0
  -47.1452  -39.4384   -1.6030 H   0  0  0  0  0  0
  -44.7245  -39.4032   -1.0947 H   0  0  0  0  0  0
  -44.9628  -39.0098   -2.8075 H   0  0  0  0  0  0
  -46.5419  -41.1389   -0.0843 H   0  0  0  0  0  0
  1  2  1  0  0  0
  1 27  1  0  0  0
  1 28  1  0  0  0
  1 29  1  0  0  0
  2  3  1  0  0  0
  2  4  1  0  0  0
  2 30  1  0  0  0
  3 31  1  0  0  0
  3 32  1  0  0  0
  3 33  1  0  0  0
  4  9  1  0  0  0
  4  5  1  0  0  0
  5  6  2  0  0  0
  5 34  1  0  0  0
  6  7  1  0  0  0
  6 11  1  0  0  0
  7  8  2  0  0  0
  7 35  1  0  0  0
  8  9  1  0  0  0
  8 36  1  0  0  0
  9 10  2  0  0  0
 11 16  1  0  0  0
 11 12  2  0  0  0
 12 13  1  0  0  0
 12 37  1  0  0  0
 13 14  2  0  0  0
 13 38  1  0  0  0
 14 15  1  0  0  0
 15 19  1  0  0  0
 15 16  2  0  0  0
 16 17  1  0  0  0
 17 18  2  0  0  0
 17 39  1  0  0  0
 18 19  1  0  0  0
 18 20  1  0  0  0
 19 26  1  0  0  0
 20 25  1  0  0  0
 20 21  1  0  0  0
 20 40  1  0  0  0
 21 22  1  0  0  0
 21 41  1  0  0  0
 21 42  1  0  0  0
 22 23  1  0  0  0
 22 43  1  0  0  0
 22 44  1  0  0  0
 23 24  1  0  0  0
 23 45  1  0  0  0
 23 50  1  0  0  0
 24 25  1  0  0  0
 24 46  1  0  0  0
 24 47  1  0  0  0
 25 48  1  0  0  0
 25 49  1  0  0  0
M  CHG  1  23   1
M  END
> <s_m_source_file>
/home/yujie/leadopt/data/result/selection/CDK9/lig_40.sdf

> <i_m_source_file_index>
1

> <i_lp_mmshare_version>
51139

> <i_f3d_flags>
0

> <s_epik_input>
W0NIM11bQ0hdKFtDSDNdKW4xW2NIXWMoW2NIXVtjSF1jMT1PKS1jKFtjSF1bY0hdbjIpYyhjMjMpW2NIXWMoW25IXTMpW0NIXTRbQ0gyXVtDSDJdW05IXVtDSDJdW0NIMl00

> <s_epik_cmdline>
J2VwaWtfcHl0aG9uJywgJy1waHQnLCAnMi4wJywgJy1waCcsICc3LjAnLCAnLXRuJywgJzgnLCAnLW1hJywgJzIwMCcsICctaW1hZScsICc8aW5maWxlLm1hZT4nLCAnLW9tYWUnLCAnPG91dGZpbGUubWFlPic=

> <r_lp_tautomer_probability>
1

> <r_epik_Ionization_Penalty>
  0.0017

> <r_epik_Ionization_Penalty_Charging>
  0.0006

> <r_epik_Ionization_Penalty_Neutral>
  0.0011

> <r_epik_State_Penalty>
 -0.0000

> <r_epik_Charging_Adjusted_Penalty>
0.000598642

> <i_epik_Tot_Q>
1

> <i_epik_Tot_abs_Q>
1

> <s_lp_Force_Field>
OPLS3e

> <r_lp_Energy>
49.7318

> <b_lp_Chiralities_Consistent>
1

> <s_lp_Variant>
/home/yujie/leadopt/data/result/selection/CDK9/lig_40.sdf:1-1

> <s_i_glide_gridfile>
glide-grid_CDK9

> <i_i_glide_lignum>
1

> <i_i_glide_rotatable_bonds>
3

> <r_i_docking_score>
-10.3142625006339

> <r_i_glide_ligand_efficiency>
-0.412570500025357

> <r_i_glide_ligand_efficiency_sa>
-1.20636345904312

> <r_i_glide_ligand_efficiency_ln>
-2.44478930615507

> <r_i_glide_gscore>
-10.3142625006339

> <r_i_glide_lipo>
-2.85652667505482

> <r_i_glide_hbond>
-0.96

> <r_i_glide_metal>
-0

> <r_i_glide_rewards>
-2.66487649127513

> <r_i_glide_evdw>
-40.3481750488281

> <r_i_glide_ecoul>
-12.8865394592285

> <r_i_glide_erotb>
0.232371054355548

> <r_i_glide_esite>
-0.114840717333842

> <r_i_glide_emodel>
-89.1976369509827

> <r_i_glide_energy>
-53.2347145080566

> <r_i_glide_einternal>
3.56824398040771

> <i_i_glide_confnum>
2

> <i_i_glide_posenum>
64

> <r_i_glide_eff_state_penalty>
-0

$$$$
