@<TRIPOS>MOLECULE
/home/yujie/leadopt/data/result/selection/CDK9/lig_30.sdf:1
74   78    1
SMALL
USER_CHARGES


@<TRIPOS>ATOM
      1 C1        -48.7301  -47.1349   -2.5254 C.3       1 UNK         0.0000 
      2 N2        -48.3580  -45.9335   -1.7671 N.am      1 UNK         0.0000 
      3 C3        -48.4905  -46.1099   -0.3190 C.3       1 UNK         0.0000 
      4 C4        -47.9413  -44.8000   -2.3913 C.2       1 UNK         0.0000 
      5 O5        -47.8101  -44.7497   -3.6149 O.2       1 UNK         0.0000 
      6 C6        -47.6455  -43.5134   -1.5806 C.3       1 UNK         0.0000 
      7 N7        -46.2349  -42.9565   -1.9348 N.4       1 UNK         0.0000 
      8 C8        -45.6881  -42.1009   -0.7669 C.3       1 UNK         0.0000 
      9 C9        -44.2284  -41.7207   -1.0727 C.3       1 UNK         0.0000 
     10 C10       -44.0831  -40.9605   -2.4108 C.3       1 UNK         0.0000 
     11 C11       -44.7760  -41.7197   -3.5662 C.3       1 UNK         0.0000 
     12 C12       -46.2267  -42.1090   -3.2320 C.3       1 UNK         0.0000 
     13 C13       -42.6514  -40.5531   -2.7149 C.ar      1 UNK         0.0000 
     14 C14       -42.0823  -39.3063   -2.9485 C.ar      1 UNK         0.0000 
     15 C15       -40.6640  -39.4786   -3.1187 C.ar      1 UNK         0.0000 
     16 C16       -39.5386  -38.6509   -3.3661 C.ar      1 UNK         0.0000 
     17 C17       -38.2928  -39.2880   -3.4565 C.ar      1 UNK         0.0000 
     18 C18       -38.1983  -40.6707   -3.3291 C.ar      1 UNK         0.0000 
     19 N19       -39.2556  -41.4936   -3.1187 N.ar      1 UNK         0.0000 
     20 C20       -40.4356  -40.8798   -3.0242 C.ar      1 UNK         0.0000 
     21 N21       -41.6459  -41.4913   -2.7891 N.pl3     1 UNK         0.0000 
     22 C22       -39.6155  -37.1822   -3.5428 C.ar      1 UNK         0.0000 
     23 C23       -38.7790  -36.4978   -4.5217 C.ar      1 UNK         0.0000 
     24 C24       -38.8438  -35.1565   -4.6558 C.ar      1 UNK         0.0000 
     25 C25       -39.7050  -34.3148   -3.8341 C.ar      1 UNK         0.0000 
     26 O26       -39.6582  -33.0931   -3.9904 O.2       1 UNK         0.0000 
     27 N27       -40.4930  -34.9941   -2.9191 N.pl3     1 UNK         0.0000 
     28 C28       -40.4156  -36.3721   -2.8113 C.ar      1 UNK         0.0000 
     29 C29       -41.3218  -34.1821   -2.0095 C.3       1 UNK         0.0000 
     30 C30       -42.7924  -34.0148   -2.4539 C.3       1 UNK         0.0000 
     31 C31       -43.6884  -35.2654   -2.2766 C.3       1 UNK         0.0000 
     32 C32       -43.8544  -35.7013   -0.7986 C.3       1 UNK         0.0000 
     33 C33       -44.8357  -36.8840   -0.6507 C.3       1 UNK         0.0000 
     34 O34       -46.0822  -36.5601   -1.2660 O.3       1 UNK         0.0000 
     35 C35       -45.9869  -36.2971   -2.6627 C.3       1 UNK         0.0000 
     36 C36       -45.0877  -35.0660   -2.8972 C.3       1 UNK         0.0000 
     37 H37       -41.8031  -42.4840   -2.6484 H         1 UNK         0.0000 
     38 H38       -48.7189  -46.9823   -3.6076 H         1 UNK         0.0000 
     39 H39       -49.7326  -47.4681   -2.2497 H         1 UNK         0.0000 
     40 H40       -48.0292  -47.9447   -2.3095 H         1 UNK         0.0000 
     41 H41       -47.7658  -45.5340    0.2554 H         1 UNK         0.0000 
     42 H42       -49.4967  -45.8433    0.0066 H         1 UNK         0.0000 
     43 H43       -48.3211  -47.1537   -0.0487 H         1 UNK         0.0000 
     44 H44       -48.3605  -42.7223   -1.8121 H         1 UNK         0.0000 
     45 H45       -47.6711  -43.6565   -0.5038 H         1 UNK         0.0000 
     46 H46       -46.3356  -41.2256   -0.6599 H         1 UNK         0.0000 
     47 H47       -45.7658  -42.6927    0.1426 H         1 UNK         0.0000 
     48 H48       -43.8754  -41.0921   -0.2569 H         1 UNK         0.0000 
     49 H49       -43.6462  -42.6442   -1.0865 H         1 UNK         0.0000 
     50 H50       -44.6843  -40.0582   -2.2770 H         1 UNK         0.0000 
     51 H51       -44.2339  -42.6381   -3.7971 H         1 UNK         0.0000 
     52 H52       -44.8325  -41.0938   -4.4547 H         1 UNK         0.0000 
     53 H53       -46.6637  -42.6887   -4.0434 H         1 UNK         0.0000 
     54 H54       -46.8560  -41.2349   -3.0528 H         1 UNK         0.0000 
     55 H55       -42.6351  -38.3797   -2.9685 H         1 UNK         0.0000 
     56 H56       -37.3920  -38.7130   -3.6222 H         1 UNK         0.0000 
     57 H57       -37.2323  -41.1488   -3.3973 H         1 UNK         0.0000 
     58 H58       -38.1174  -37.0637   -5.1628 H         1 UNK         0.0000 
     59 H59       -38.2225  -34.6667   -5.3883 H         1 UNK         0.0000 
     60 H60       -41.0653  -36.7452   -2.0323 H         1 UNK         0.0000 
     61 H61       -41.2860  -34.6305   -1.0179 H         1 UNK         0.0000 
     62 H62       -40.8914  -33.1886   -1.8672 H         1 UNK         0.0000 
     63 H63       -43.2247  -33.2065   -1.8631 H         1 UNK         0.0000 
     64 H64       -42.8202  -33.6641   -3.4869 H         1 UNK         0.0000 
     65 H65       -43.2418  -36.1047   -2.8121 H         1 UNK         0.0000 
     66 H66       -42.8957  -35.9419   -0.3414 H         1 UNK         0.0000 
     67 H67       -44.2379  -34.8616   -0.2164 H         1 UNK         0.0000 
     68 H68       -44.4201  -37.7951   -1.0842 H         1 UNK         0.0000 
     69 H69       -45.0171  -37.0984    0.4034 H         1 UNK         0.0000 
     70 H70       -45.5982  -37.1732   -3.1866 H         1 UNK         0.0000 
     71 H71       -46.9870  -36.1138   -3.0562 H         1 UNK         0.0000 
     72 H72       -45.5611  -34.1907   -2.4503 H         1 UNK         0.0000 
     73 H73       -45.0056  -34.8387   -3.9614 H         1 UNK         0.0000 
     74 H74       -45.6180  -43.7557   -2.0457 H         1 UNK         0.0000 
@<TRIPOS>BOND
     1    1    2 1    
     2    1   38 1    
     3    1   39 1    
     4    1   40 1    
     5    2    3 1    
     6    2    4 am   BACKBONE|DICT|INTERRES
     7    3   41 1    
     8    3   42 1    
     9    3   43 1    
    10    4    5 2    
    11    4    6 1    
    12    6    7 1    
    13    6   44 1    
    14    6   45 1    
    15    7   12 1    
    16    7    8 1    
    17    7   74 1    
    18    8    9 1    
    19    8   46 1    
    20    8   47 1    
    21    9   10 1    
    22    9   48 1    
    23    9   49 1    
    24   10   11 1    
    25   10   13 1    
    26   10   50 1    
    27   11   12 1    
    28   11   51 1    
    29   11   52 1    
    30   12   53 1    
    31   12   54 1    
    32   13   21 ar   
    33   13   14 ar   
    34   14   15 ar   
    35   14   55 1    
    36   15   20 ar   
    37   15   16 ar   
    38   16   17 ar   
    39   16   22 1    
    40   17   18 ar   
    41   17   56 1    
    42   18   19 ar   
    43   18   57 1    
    44   19   20 ar   
    45   20   21 ar   
    46   21   37 1    
    47   22   28 ar   
    48   22   23 ar   
    49   23   24 ar   
    50   23   58 1    
    51   24   25 ar   
    52   24   59 1    
    53   25   26 2    
    54   25   27 ar   
    55   27   28 ar   
    56   27   29 1    
    57   28   60 1    
    58   29   30 1    
    59   29   61 1    
    60   29   62 1    
    61   30   31 1    
    62   30   63 1    
    63   30   64 1    
    64   31   36 1    
    65   31   32 1    
    66   31   65 1    
    67   32   33 1    
    68   32   66 1    
    69   32   67 1    
    70   33   34 1    
    71   33   68 1    
    72   33   69 1    
    73   34   35 1    
    74   35   36 1    
    75   35   70 1    
    76   35   71 1    
    77   36   72 1    
    78   36   73 1    
@<TRIPOS>SUBSTRUCTURE
     1 UNK         1 GROUP             0       ****    0 ROOT    
