@<TRIPOS>MOLECULE
/home/yujie/leadopt/data/result/selection/CDK9/lig_2.sdf:1
65   70    1
SMALL
USER_CHARGES


@<TRIPOS>ATOM
      1 C1        -45.9713  -40.3653   -3.0566 C.ar      1 UNK         0.0000 
      2 C2        -44.6283  -39.9926   -3.0048 C.ar      1 UNK         0.0000 
      3 C3        -43.6246  -40.9684   -3.0191 C.ar      1 UNK         0.0000 
      4 C4        -43.9904  -42.3198   -3.0544 C.ar      1 UNK         0.0000 
      5 C5        -45.3257  -42.6941   -3.1089 C.ar      1 UNK         0.0000 
      6 C6        -46.3193  -41.7175   -3.1198 C.ar      1 UNK         0.0000 
      7 C7        -47.7708  -42.1459   -3.2497 C.3       1 UNK         0.0000 
      8 N8        -48.3899  -42.6654   -1.9312 N.4       1 UNK         0.0000 
      9 C9        -49.7039  -43.4332   -2.2135 C.3       1 UNK         0.0000 
     10 C10       -50.3273  -43.8718   -0.8754 C.3       1 UNK         0.0000 
     11 O11       -50.5377  -42.7366   -0.0437 O.3       1 UNK         0.0000 
     12 C12       -49.3442  -42.0482    0.3178 C.3       1 UNK         0.0000 
     13 C13       -48.6084  -41.5113   -0.9240 C.3       1 UNK         0.0000 
     14 C14       -42.1666  -40.6143   -3.0304 C.ar      1 UNK         0.0000 
     15 N15       -41.2213  -41.5197   -3.0456 N.2       1 UNK         0.0000 
     16 C16       -40.0452  -40.8455   -3.0602 C.ar      1 UNK         0.0000 
     17 C17       -40.2697  -39.4555   -3.0913 C.ar      1 UNK         0.0000 
     18 N18       -41.6456  -39.3373   -3.0573 N.pl3     1 UNK         0.0000 
     19 C19       -39.1988  -38.5600   -3.1559 C.ar      1 UNK         0.0000 
     20 C20       -37.9242  -39.1329   -3.1891 C.ar      1 UNK         0.0000 
     21 C21       -37.7876  -40.5200   -3.1232 C.ar      1 UNK         0.0000 
     22 N22       -38.8276  -41.3886   -3.0581 N.ar      1 UNK         0.0000 
     23 C23       -39.4363  -37.1173   -3.2042 C.ar      1 UNK         0.0000 
     24 C24       -39.2100  -36.4132   -4.3832 C.ar      1 UNK         0.0000 
     25 C25       -39.6107  -35.0884   -4.4742 C.ar      1 UNK         0.0000 
     26 C26       -40.2304  -34.4584   -3.3864 C.ar      1 UNK         0.0000 
     27 C27       -40.3526  -35.1494   -2.1747 C.ar      1 UNK         0.0000 
     28 C28       -39.9751  -36.4790   -2.0908 C.ar      1 UNK         0.0000 
     29 C29       -40.7127  -33.0408   -3.5642 C.2       1 UNK         0.0000 
     30 O30       -40.0321  -32.2929   -4.2576 O.2       1 UNK         0.0000 
     31 N31       -41.8946  -32.6250   -3.0546 N.am      1 UNK         0.0000 
     32 C32       -42.3446  -31.2451   -3.2842 C.3       1 UNK         0.0000 
     33 C33       -43.3403  -31.0306   -2.1595 C.3       1 UNK         0.0000 
     34 C34       -43.9364  -32.4145   -1.9304 C.3       1 UNK         0.0000 
     35 C35       -42.7382  -33.3319   -2.0811 C.3       1 UNK         0.0000 
     36 H36       -42.2066  -38.4984   -3.0599 H         1 UNK         0.0000 
     37 H37       -46.7334  -39.5996   -3.0649 H         1 UNK         0.0000 
     38 H38       -44.3771  -38.9430   -2.9722 H         1 UNK         0.0000 
     39 H39       -43.2337  -43.0935   -3.0567 H         1 UNK         0.0000 
     40 H40       -45.5777  -43.7452   -3.1488 H         1 UNK         0.0000 
     41 H41       -48.4152  -41.3374   -3.6018 H         1 UNK         0.0000 
     42 H42       -47.8452  -42.9766   -3.9551 H         1 UNK         0.0000 
     43 H43       -50.3650  -42.7626   -2.7654 H         1 UNK         0.0000 
     44 H44       -49.4524  -44.2906   -2.8407 H         1 UNK         0.0000 
     45 H45       -49.6975  -44.6050   -0.3674 H         1 UNK         0.0000 
     46 H46       -51.2889  -44.3563   -1.0497 H         1 UNK         0.0000 
     47 H47       -48.7056  -42.6934    0.9286 H         1 UNK         0.0000 
     48 H48       -49.6192  -41.1988    0.9426 H         1 UNK         0.0000 
     49 H49       -47.6255  -41.1166   -0.6601 H         1 UNK         0.0000 
     50 H50       -49.1823  -40.7301   -1.4247 H         1 UNK         0.0000 
     51 H51       -37.0475  -38.5029   -3.2480 H         1 UNK         0.0000 
     52 H52       -36.8137  -40.9761   -3.1247 H         1 UNK         0.0000 
     53 H53       -38.7799  -36.9049   -5.2443 H         1 UNK         0.0000 
     54 H54       -39.4743  -34.5692   -5.4128 H         1 UNK         0.0000 
     55 H55       -40.7428  -34.6933   -1.2815 H         1 UNK         0.0000 
     56 H56       -40.1262  -37.0198   -1.1670 H         1 UNK         0.0000 
     57 H57       -42.8703  -31.1723   -4.2374 H         1 UNK         0.0000 
     58 H58       -41.5431  -30.5102   -3.1852 H         1 UNK         0.0000 
     59 H59       -44.0273  -30.2324   -2.4069 H         1 UNK         0.0000 
     60 H60       -42.8356  -30.6900   -1.2607 H         1 UNK         0.0000 
     61 H61       -44.4325  -32.5258   -0.9660 H         1 UNK         0.0000 
     62 H62       -44.6482  -32.6943   -2.7052 H         1 UNK         0.0000 
     63 H63       -42.2317  -33.3626   -1.1157 H         1 UNK         0.0000 
     64 H64       -43.0170  -34.3357   -2.4056 H         1 UNK         0.0000 
     65 H65       -47.7412  -43.3140   -1.5026 H         1 UNK         0.0000 
@<TRIPOS>BOND
     1    1    6 ar   
     2    1    2 ar   
     3    1   37 1    
     4    2    3 ar   
     5    2   38 1    
     6    3    4 ar   
     7    3   14 1    
     8    4    5 ar   
     9    4   39 1    
    10    5    6 ar   
    11    5   40 1    
    12    6    7 1    
    13    7    8 1    
    14    7   41 1    
    15    7   42 1    
    16    8   13 1    
    17    8    9 1    
    18    8   65 1    
    19    9   10 1    
    20    9   43 1    
    21    9   44 1    
    22   10   11 1    
    23   10   45 1    
    24   10   46 1    
    25   11   12 1    
    26   12   13 1    
    27   12   47 1    
    28   12   48 1    
    29   13   49 1    
    30   13   50 1    
    31   14   15 ar   
    32   14   18 ar   
    33   15   16 ar   
    34   16   22 ar   
    35   16   17 ar   
    36   17   18 ar   
    37   17   19 ar   
    38   18   36 1    
    39   19   23 1    
    40   19   20 ar   
    41   20   51 1    
    42   20   21 ar   
    43   21   52 1    
    44   21   22 ar   
    45   23   28 ar   
    46   23   24 ar   
    47   24   25 ar   
    48   24   53 1    
    49   25   26 ar   
    50   25   54 1    
    51   26   27 ar   
    52   26   29 1    
    53   27   28 ar   
    54   27   55 1    
    55   28   56 1    
    56   29   30 2    
    57   29   31 am   BACKBONE|DICT|INTERRES
    58   31   35 1    
    59   31   32 1    
    60   32   33 1    
    61   32   57 1    
    62   32   58 1    
    63   33   34 1    
    64   33   59 1    
    65   33   60 1    
    66   34   35 1    
    67   34   61 1    
    68   34   62 1    
    69   35   63 1    
    70   35   64 1    
@<TRIPOS>SUBSTRUCTURE
     1 UNK         1 GROUP             0       ****    0 ROOT    
