@<TRIPOS>MOLECULE
/home/yujie/leadopt/data/result/selection/CDK9/lig_33.sdf:1
62   65    1
SMALL
USER_CHARGES


@<TRIPOS>ATOM
      1 C1        -42.0529  -34.8326   -0.8200 C.3       1 UNK         0.0000 
      2 C2        -41.5621  -34.2320   -2.1572 C.3       1 UNK         0.0000 
      3 C3        -42.7474  -33.8811   -3.0803 C.3       1 UNK         0.0000 
      4 N4        -40.5123  -35.0127   -2.8696 N.pl3     1 UNK         0.0000 
      5 C5        -40.3808  -36.3888   -2.7756 C.ar      1 UNK         0.0000 
      6 C6        -39.3614  -37.1142   -3.2936 C.ar      1 UNK         0.0000 
      7 C7        -38.3304  -36.3242   -3.9288 C.ar      1 UNK         0.0000 
      8 N8        -38.4298  -35.0462   -4.0650 N.2       1 UNK         0.0000 
      9 C9        -39.5574  -34.3217   -3.6170 C.ar      1 UNK         0.0000 
     10 O10       -39.7203  -33.1206   -3.8555 O.2       1 UNK         0.0000 
     11 C11       -39.2773  -38.6100   -3.2186 C.ar      1 UNK         0.0000 
     12 C12       -38.0291  -39.2570   -3.2256 C.ar      1 UNK         0.0000 
     13 C13       -37.9374  -40.6435   -3.1366 C.ar      1 UNK         0.0000 
     14 N14       -38.9974  -41.4888   -3.0577 N.ar      1 UNK         0.0000 
     15 C15       -40.1826  -40.8757   -3.0565 C.ar      1 UNK         0.0000 
     16 C16       -40.4092  -39.4667   -3.1325 C.ar      1 UNK         0.0000 
     17 C17       -41.8363  -39.3115   -3.1125 C.ar      1 UNK         0.0000 
     18 C18       -42.4135  -40.5575   -2.9331 C.ar      1 UNK         0.0000 
     19 N19       -41.4029  -41.4935   -2.9199 N.pl3     1 UNK         0.0000 
     20 C20       -43.8743  -40.9231   -2.7466 C.3       1 UNK         0.0000 
     21 C21       -44.2204  -42.4090   -2.9828 C.3       1 UNK         0.0000 
     22 C22       -45.7343  -42.6701   -2.8497 C.3       1 UNK         0.0000 
     23 N23       -46.2240  -42.1869   -1.4567 N.4       1 UNK         0.0000 
     24 C24       -45.8901  -40.6897   -1.2418 C.3       1 UNK         0.0000 
     25 C25       -44.3756  -40.4890   -1.3577 C.3       1 UNK         0.0000 
     26 C26       -47.7581  -42.3750   -1.2530 C.3       1 UNK         0.0000 
     27 C27       -48.1538  -43.8641   -1.2731 C.2       1 UNK         0.0000 
     28 O28       -48.3877  -44.3576   -2.3778 O.2       1 UNK         0.0000 
     29 N29       -48.2497  -44.5759   -0.1194 N.am      1 UNK         0.0000 
     30 C30       -48.6781  -45.9775   -0.1289 C.3       1 UNK         0.0000 
     31 C31       -47.9186  -44.0765    1.2201 C.3       1 UNK         0.0000 
     32 H32       -41.5809  -42.4834   -2.7820 H         1 UNK         0.0000 
     33 H33       -42.7480  -34.1483   -0.3299 H         1 UNK         0.0000 
     34 H34       -42.5991  -35.7680   -0.9458 H         1 UNK         0.0000 
     35 H35       -41.2299  -34.9907   -0.1219 H         1 UNK         0.0000 
     36 H36       -41.1151  -33.2782   -1.8721 H         1 UNK         0.0000 
     37 H37       -43.5465  -33.3918   -2.5243 H         1 UNK         0.0000 
     38 H38       -42.4480  -33.1761   -3.8564 H         1 UNK         0.0000 
     39 H39       -43.1785  -34.7681   -3.5455 H         1 UNK         0.0000 
     40 H40       -41.2197  -36.8389   -2.2731 H         1 UNK         0.0000 
     41 H41       -37.4216  -36.7763   -4.3104 H         1 UNK         0.0000 
     42 H42       -37.1087  -38.6947   -3.2658 H         1 UNK         0.0000 
     43 H43       -36.9564  -41.0936   -3.1229 H         1 UNK         0.0000 
     44 H44       -42.4072  -38.3979   -3.1822 H         1 UNK         0.0000 
     45 H45       -44.4469  -40.3507   -3.4783 H         1 UNK         0.0000 
     46 H46       -43.7024  -43.0511   -2.2681 H         1 UNK         0.0000 
     47 H47       -43.9287  -42.6940   -3.9921 H         1 UNK         0.0000 
     48 H48       -45.9356  -43.7409   -2.9138 H         1 UNK         0.0000 
     49 H49       -46.3209  -42.1442   -3.6057 H         1 UNK         0.0000 
     50 H50       -46.4383  -40.1146   -1.9888 H         1 UNK         0.0000 
     51 H51       -46.2341  -40.3927   -0.2567 H         1 UNK         0.0000 
     52 H52       -44.1878  -39.4263   -1.2034 H         1 UNK         0.0000 
     53 H53       -43.8717  -41.0480   -0.5671 H         1 UNK         0.0000 
     54 H54       -48.2471  -41.8332   -2.0646 H         1 UNK         0.0000 
     55 H55       -48.0322  -41.8810   -0.3219 H         1 UNK         0.0000 
     56 H56       -49.0873  -46.2931   -1.0912 H         1 UNK         0.0000 
     57 H57       -49.4439  -46.1527    0.6293 H         1 UNK         0.0000 
     58 H58       -47.8289  -46.6267    0.0835 H         1 UNK         0.0000 
     59 H59       -47.4475  -43.0962    1.2309 H         1 UNK         0.0000 
     60 H60       -48.8207  -44.0218    1.8292 H         1 UNK         0.0000 
     61 H61       -47.2304  -44.7609    1.7185 H         1 UNK         0.0000 
     62 H62       -45.7325  -42.7230   -0.7535 H         1 UNK         0.0000 
@<TRIPOS>BOND
     1    1    2 1    
     2    1   33 1    
     3    1   34 1    
     4    1   35 1    
     5    2    3 1    
     6    2    4 1    
     7    2   36 1    
     8    3   37 1    
     9    3   38 1    
    10    3   39 1    
    11    4    9 ar   
    12    4    5 ar   
    13    5    6 ar   
    14    5   40 1    
    15    6    7 ar   
    16    6   11 1    
    17    7    8 ar   
    18    7   41 1    
    19    8    9 ar   
    20    9   10 2    
    21   11   16 ar   
    22   11   12 ar   
    23   12   13 ar   
    24   12   42 1    
    25   13   14 ar   
    26   13   43 1    
    27   14   15 ar   
    28   15   19 ar   
    29   15   16 ar   
    30   16   17 ar   
    31   17   18 ar   
    32   17   44 1    
    33   18   19 ar   
    34   18   20 1    
    35   19   32 1    
    36   20   25 1    
    37   20   21 1    
    38   20   45 1    
    39   21   22 1    
    40   21   46 1    
    41   21   47 1    
    42   22   23 1    
    43   22   48 1    
    44   22   49 1    
    45   23   24 1    
    46   23   26 1    
    47   23   62 1    
    48   24   25 1    
    49   24   50 1    
    50   24   51 1    
    51   25   52 1    
    52   25   53 1    
    53   26   27 1    
    54   26   54 1    
    55   26   55 1    
    56   27   28 2    
    57   27   29 am   BACKBONE|DICT|INTERRES
    58   29   30 1    
    59   29   31 1    
    60   30   56 1    
    61   30   57 1    
    62   30   58 1    
    63   31   59 1    
    64   31   60 1    
    65   31   61 1    
@<TRIPOS>SUBSTRUCTURE
     1 UNK         1 GROUP             0       ****    0 ROOT    
