@<TRIPOS>MOLECULE
/home/yujie/leadopt/data/result/selection/CDK9/lig_14.sdf:1
63   67    1
SMALL
USER_CHARGES


@<TRIPOS>ATOM
      1 C1        -47.7048  -39.1906   -1.0888 C.3       1 UNK         0.0000 
      2 C2        -47.2879  -39.8542   -2.4042 C.2       1 UNK         0.0000 
      3 O3        -47.6891  -39.3498   -3.4557 O.2       1 UNK         0.0000 
      4 N4        -46.6447  -41.0502   -2.3585 N.am      1 UNK         0.0000 
      5 C5        -45.9118  -41.5197   -1.1769 C.3       1 UNK         0.0000 
      6 C6        -44.4608  -40.9958   -1.2636 C.3       1 UNK         0.0000 
      7 C7        -43.7976  -41.2946   -2.6305 C.3       1 UNK         0.0000 
      8 C8        -44.7486  -41.2639   -3.8566 C.3       1 UNK         0.0000 
      9 C9        -46.1999  -41.7204   -3.5824 C.3       1 UNK         0.0000 
     10 C10       -42.4105  -40.7143   -2.8394 C.ar      1 UNK         0.0000 
     11 C11       -41.9128  -39.4251   -2.9725 C.ar      1 UNK         0.0000 
     12 C12       -40.4769  -39.5157   -3.0836 C.ar      1 UNK         0.0000 
     13 C13       -39.3937  -38.6198   -3.2026 C.ar      1 UNK         0.0000 
     14 C14       -38.1056  -39.1607   -3.3045 C.ar      1 UNK         0.0000 
     15 C15       -37.9338  -40.5433   -3.2521 C.ar      1 UNK         0.0000 
     16 N16       -38.9457  -41.4384   -3.1207 N.ar      1 UNK         0.0000 
     17 C17       -40.1624  -40.8946   -3.0566 C.ar      1 UNK         0.0000 
     18 N18       -41.3432  -41.5678   -2.9128 N.pl3     1 UNK         0.0000 
     19 C19       -39.6141  -37.1624   -3.2319 C.ar      1 UNK         0.0000 
     20 C20       -39.3068  -36.4590   -4.3986 C.ar      1 UNK         0.0000 
     21 C21       -39.6295  -35.1120   -4.5119 C.ar      1 UNK         0.0000 
     22 C22       -40.2405  -34.4369   -3.4489 C.ar      1 UNK         0.0000 
     23 C23       -40.4136  -35.1184   -2.2417 C.ar      1 UNK         0.0000 
     24 C24       -40.1570  -36.4852   -2.1278 C.ar      1 UNK         0.0000 
     25 O25       -40.4296  -37.1977   -0.9742 O.3       1 UNK         0.0000 
     26 C26       -41.0478  -36.5572    0.1419 C.3       1 UNK         0.0000 
     27 C27       -40.6871  -33.0070   -3.6393 C.2       1 UNK         0.0000 
     28 O28       -40.0295  -32.2936   -4.3901 O.2       1 UNK         0.0000 
     29 N29       -41.8175  -32.5408   -3.0567 N.am      1 UNK         0.0000 
     30 C30       -42.6692  -33.2252   -2.0732 C.3       1 UNK         0.0000 
     31 C31       -43.8930  -32.3447   -2.0099 C.3       1 UNK         0.0000 
     32 C32       -43.3193  -30.9519   -2.2525 C.3       1 UNK         0.0000 
     33 C33       -42.2734  -31.1711   -3.3281 C.3       1 UNK         0.0000 
     34 H34       -41.4619  -42.5697   -2.8066 H         1 UNK         0.0000 
     35 H35       -48.2435  -39.8917   -0.4505 H         1 UNK         0.0000 
     36 H36       -48.3583  -38.3391   -1.2762 H         1 UNK         0.0000 
     37 H37       -46.8304  -38.8308   -0.5461 H         1 UNK         0.0000 
     38 H38       -46.4298  -41.2963   -0.2567 H         1 UNK         0.0000 
     39 H39       -45.9223  -42.6105   -1.2031 H         1 UNK         0.0000 
     40 H40       -44.5015  -39.9181   -1.0978 H         1 UNK         0.0000 
     41 H41       -43.8970  -41.4526   -0.4481 H         1 UNK         0.0000 
     42 H42       -43.7210  -42.3805   -2.5249 H         1 UNK         0.0000 
     43 H43       -44.3636  -41.8936   -4.6591 H         1 UNK         0.0000 
     44 H44       -44.8295  -40.2352   -4.2099 H         1 UNK         0.0000 
     45 H45       -46.2331  -42.7944   -3.3919 H         1 UNK         0.0000 
     46 H46       -46.8955  -41.5755   -4.4106 H         1 UNK         0.0000 
     47 H47       -42.5129  -38.5273   -2.9521 H         1 UNK         0.0000 
     48 H48       -37.2464  -38.5125   -3.4056 H         1 UNK         0.0000 
     49 H49       -36.9410  -40.9647   -3.3108 H         1 UNK         0.0000 
     50 H50       -38.8746  -36.9731   -5.2453 H         1 UNK         0.0000 
     51 H51       -39.4440  -34.6117   -5.4520 H         1 UNK         0.0000 
     52 H52       -40.7694  -34.5933   -1.3771 H         1 UNK         0.0000 
     53 H53       -41.1924  -37.2811    0.9425 H         1 UNK         0.0000 
     54 H54       -40.4288  -35.7533    0.5432 H         1 UNK         0.0000 
     55 H55       -42.0294  -36.1574   -0.1176 H         1 UNK         0.0000 
     56 H56       -42.9287  -34.2446   -2.3625 H         1 UNK         0.0000 
     57 H57       -42.1930  -33.1952   -1.0916 H         1 UNK         0.0000 
     58 H58       -44.5489  -32.6933   -2.8088 H         1 UNK         0.0000 
     59 H59       -44.4299  -32.4421   -1.0661 H         1 UNK         0.0000 
     60 H60       -42.8298  -30.5827   -1.3504 H         1 UNK         0.0000 
     61 H61       -44.0295  -30.1827   -2.5413 H         1 UNK         0.0000 
     62 H62       -41.4744  -30.4349   -3.2179 H         1 UNK         0.0000 
     63 H63       -42.7412  -31.1164   -4.3122 H         1 UNK         0.0000 
@<TRIPOS>BOND
     1    1    2 1    
     2    1   35 1    
     3    1   36 1    
     4    1   37 1    
     5    2    3 2    
     6    2    4 am   BACKBONE|DICT|INTERRES
     7    4    9 1    
     8    4    5 1    
     9    5    6 1    
    10    5   38 1    
    11    5   39 1    
    12    6    7 1    
    13    6   40 1    
    14    6   41 1    
    15    7    8 1    
    16    7   10 1    
    17    7   42 1    
    18    8    9 1    
    19    8   43 1    
    20    8   44 1    
    21    9   45 1    
    22    9   46 1    
    23   10   18 ar   
    24   10   11 ar   
    25   11   12 ar   
    26   11   47 1    
    27   12   17 ar   
    28   12   13 ar   
    29   13   14 ar   
    30   13   19 1    
    31   14   15 ar   
    32   14   48 1    
    33   15   16 ar   
    34   15   49 1    
    35   16   17 ar   
    36   17   18 ar   
    37   18   34 1    
    38   19   24 ar   
    39   19   20 ar   
    40   20   21 ar   
    41   20   50 1    
    42   21   22 ar   
    43   21   51 1    
    44   22   23 ar   
    45   22   27 1    
    46   23   24 ar   
    47   23   52 1    
    48   24   25 1    
    49   25   26 1    
    50   26   53 1    
    51   26   54 1    
    52   26   55 1    
    53   27   28 2    
    54   27   29 am   BACKBONE|DICT|INTERRES
    55   29   33 1    
    56   29   30 1    
    57   30   31 1    
    58   30   56 1    
    59   30   57 1    
    60   31   32 1    
    61   31   58 1    
    62   31   59 1    
    63   32   33 1    
    64   32   60 1    
    65   32   61 1    
    66   33   62 1    
    67   33   63 1    
@<TRIPOS>SUBSTRUCTURE
     1 UNK         1 GROUP             0       ****    0 ROOT    
