@<TRIPOS>MOLECULE
/home/yujie/leadopt/data/result/selection/CDK9/lig_29.sdf:1
70   74    1
SMALL
USER_CHARGES


@<TRIPOS>ATOM
      1 C1        -51.4611  -40.8300   -4.1240 C.3       1 UNK         0.0000 
      2 N2        -50.4936  -40.8642   -3.0220 N.am      1 UNK         0.0000 
      3 C3        -51.0698  -41.3674   -1.7699 C.3       1 UNK         0.0000 
      4 C4        -49.1925  -40.5048   -3.1870 C.2       1 UNK         0.0000 
      5 O5        -48.7886  -40.0338   -4.2570 O.2       1 UNK         0.0000 
      6 C6        -48.2186  -40.6841   -1.9861 C.3       1 UNK         0.0000 
      7 N7        -46.8022  -40.4719   -2.3445 N.3       1 UNK         0.0000 
      8 C8        -46.0090  -40.1697   -1.1460 C.3       1 UNK         0.0000 
      9 C9        -44.5630  -39.7973   -1.5136 C.3       1 UNK         0.0000 
     10 C10       -43.8623  -40.9061   -2.3273 C.3       1 UNK         0.0000 
     11 C11       -44.7650  -41.3373   -3.5037 C.3       1 UNK         0.0000 
     12 C12       -46.2201  -41.6177   -3.0667 C.3       1 UNK         0.0000 
     13 C13       -42.4433  -40.5406   -2.7180 C.ar      1 UNK         0.0000 
     14 C14       -41.8735  -39.3100   -2.9989 C.ar      1 UNK         0.0000 
     15 C15       -40.4608  -39.4847   -3.1516 C.ar      1 UNK         0.0000 
     16 C16       -39.3422  -38.6483   -3.3768 C.ar      1 UNK         0.0000 
     17 C17       -38.0942  -39.2733   -3.4566 C.ar      1 UNK         0.0000 
     18 C18       -37.9956  -40.6549   -3.3227 C.ar      1 UNK         0.0000 
     19 N19       -39.0471  -41.4934   -3.1241 N.ar      1 UNK         0.0000 
     20 C20       -40.2351  -40.8868   -3.0493 C.ar      1 UNK         0.0000 
     21 N21       -41.4510  -41.4914   -2.8092 N.pl3     1 UNK         0.0000 
     22 C22       -39.4431  -37.1809   -3.5182 C.ar      1 UNK         0.0000 
     23 C23       -38.6753  -36.4511   -4.5173 C.ar      1 UNK         0.0000 
     24 C24       -38.7865  -35.1074   -4.6139 C.ar      1 UNK         0.0000 
     25 C25       -39.6317  -34.3117   -3.7291 C.ar      1 UNK         0.0000 
     26 O26       -39.6294  -33.0849   -3.8563 O.2       1 UNK         0.0000 
     27 N27       -40.3609  -35.0383   -2.8022 N.pl3     1 UNK         0.0000 
     28 C28       -40.2242  -36.4125   -2.7271 C.ar      1 UNK         0.0000 
     29 C29       -41.2191  -34.2966   -1.8565 C.3       1 UNK         0.0000 
     30 C30       -42.7189  -34.2446   -2.2300 C.3       1 UNK         0.0000 
     31 C31       -43.0691  -33.2783   -3.3855 C.3       1 UNK         0.0000 
     32 C32       -44.4075  -33.5697   -4.0818 C.3       1 UNK         0.0000 
     33 O33       -44.5927  -34.9655   -4.2566 O.3       1 UNK         0.0000 
     34 C34       -44.7795  -35.6389   -3.0206 C.3       1 UNK         0.0000 
     35 C35       -43.4644  -35.6053   -2.2269 C.3       1 UNK         0.0000 
     36 H36       -41.6293  -42.4788   -2.6511 H         1 UNK         0.0000 
     37 H37       -51.0287  -40.4905   -5.0680 H         1 UNK         0.0000 
     38 H38       -52.2873  -40.1606   -3.8787 H         1 UNK         0.0000 
     39 H39       -51.8723  -41.8263   -4.2962 H         1 UNK         0.0000 
     40 H40       -50.4228  -41.2449   -0.9001 H         1 UNK         0.0000 
     41 H41       -51.9993  -40.8395   -1.5454 H         1 UNK         0.0000 
     42 H42       -51.3073  -42.4292   -1.8647 H         1 UNK         0.0000 
     43 H43       -48.5255  -39.9558   -1.2323 H         1 UNK         0.0000 
     44 H44       -48.3376  -41.6755   -1.5444 H         1 UNK         0.0000 
     45 H45       -46.4590  -39.3243   -0.6222 H         1 UNK         0.0000 
     46 H46       -46.0317  -41.0171   -0.4585 H         1 UNK         0.0000 
     47 H47       -44.6122  -38.8596   -2.0702 H         1 UNK         0.0000 
     48 H48       -44.0263  -39.6209   -0.5807 H         1 UNK         0.0000 
     49 H49       -43.8541  -41.7646   -1.6508 H         1 UNK         0.0000 
     50 H50       -44.3751  -42.2451   -3.9655 H         1 UNK         0.0000 
     51 H51       -44.8297  -40.5528   -4.2548 H         1 UNK         0.0000 
     52 H52       -46.2759  -42.5149   -2.4472 H         1 UNK         0.0000 
     53 H53       -46.8158  -41.8239   -3.9568 H         1 UNK         0.0000 
     54 H54       -42.4227  -38.3848   -3.0296 H         1 UNK         0.0000 
     55 H55       -37.1964  -38.6897   -3.6045 H         1 UNK         0.0000 
     56 H56       -37.0131  -41.0941   -3.3656 H         1 UNK         0.0000 
     57 H57       -38.0291  -36.9858   -5.2002 H         1 UNK         0.0000 
     58 H58       -38.2160  -34.5801   -5.3628 H         1 UNK         0.0000 
     59 H59       -40.8161  -36.8269   -1.9215 H         1 UNK         0.0000 
     60 H60       -41.1219  -34.7479   -0.8687 H         1 UNK         0.0000 
     61 H61       -40.8647  -33.2725   -1.7379 H         1 UNK         0.0000 
     62 H62       -43.2002  -33.7377   -1.3910 H         1 UNK         0.0000 
     63 H63       -42.9461  -32.2311   -3.1039 H         1 UNK         0.0000 
     64 H64       -42.3340  -33.4440   -4.1686 H         1 UNK         0.0000 
     65 H65       -45.2289  -33.1667   -3.4933 H         1 UNK         0.0000 
     66 H66       -44.4429  -33.0831   -5.0560 H         1 UNK         0.0000 
     67 H67       -45.5905  -35.1907   -2.4439 H         1 UNK         0.0000 
     68 H68       -45.0817  -36.6675   -3.2194 H         1 UNK         0.0000 
     69 H69       -42.8477  -36.2901   -2.7979 H         1 UNK         0.0000 
     70 H70       -43.5444  -36.0393   -1.2295 H         1 UNK         0.0000 
@<TRIPOS>BOND
     1    1    2 1    
     2    1   37 1    
     3    1   38 1    
     4    1   39 1    
     5    2    3 1    
     6    2    4 am   BACKBONE|DICT|INTERRES
     7    3   40 1    
     8    3   41 1    
     9    3   42 1    
    10    4    5 2    
    11    4    6 1    
    12    6    7 1    
    13    6   43 1    
    14    6   44 1    
    15    7   12 1    
    16    7    8 1    
    17    8    9 1    
    18    8   45 1    
    19    8   46 1    
    20    9   10 1    
    21    9   47 1    
    22    9   48 1    
    23   10   11 1    
    24   10   13 1    
    25   10   49 1    
    26   11   12 1    
    27   11   50 1    
    28   11   51 1    
    29   12   52 1    
    30   12   53 1    
    31   13   21 ar   
    32   13   14 ar   
    33   14   15 ar   
    34   14   54 1    
    35   15   20 ar   
    36   15   16 ar   
    37   16   17 ar   
    38   16   22 1    
    39   17   18 ar   
    40   17   55 1    
    41   18   19 ar   
    42   18   56 1    
    43   19   20 ar   
    44   20   21 ar   
    45   21   36 1    
    46   22   28 ar   
    47   22   23 ar   
    48   23   24 ar   
    49   23   57 1    
    50   24   25 ar   
    51   24   58 1    
    52   25   26 2    
    53   25   27 ar   
    54   27   28 ar   
    55   27   29 1    
    56   28   59 1    
    57   29   30 1    
    58   29   60 1    
    59   29   61 1    
    60   30   35 1    
    61   30   31 1    
    62   30   62 1    
    63   31   32 1    
    64   31   63 1    
    65   31   64 1    
    66   32   33 1    
    67   32   65 1    
    68   32   66 1    
    69   33   34 1    
    70   34   35 1    
    71   34   67 1    
    72   34   68 1    
    73   35   69 1    
    74   35   70 1    
@<TRIPOS>SUBSTRUCTURE
     1 UNK         1 GROUP             0       ****    0 ROOT    
