/home/yujie/leadopt/data/result/selection/CDK9/lig_2.sdf:1
                    3D
 Schrodinger Suite 2020-3.
 65 70  0  0  1  0            999 V2000
  -45.9713  -40.3653   -3.0566 C   0  0  0  0  0  0
  -44.6283  -39.9926   -3.0048 C   0  0  0  0  0  0
  -43.6246  -40.9684   -3.0191 C   0  0  0  0  0  0
  -43.9904  -42.3198   -3.0544 C   0  0  0  0  0  0
  -45.3257  -42.6941   -3.1089 C   0  0  0  0  0  0
  -46.3193  -41.7175   -3.1198 C   0  0  0  0  0  0
  -47.7708  -42.1459   -3.2497 C   0  0  0  0  0  0
  -48.3899  -42.6654   -1.9312 N   0  3  0  0  0  0
  -49.7039  -43.4332   -2.2135 C   0  0  0  0  0  0
  -50.3273  -43.8718   -0.8754 C   0  0  0  0  0  0
  -50.5377  -42.7366   -0.0437 O   0  0  0  0  0  0
  -49.3442  -42.0482    0.3178 C   0  0  0  0  0  0
  -48.6084  -41.5113   -0.9240 C   0  0  0  0  0  0
  -42.1666  -40.6143   -3.0304 C   0  0  0  0  0  0
  -41.2213  -41.5197   -3.0456 N   0  0  0  0  0  0
  -40.0452  -40.8455   -3.0602 C   0  0  0  0  0  0
  -40.2697  -39.4555   -3.0913 C   0  0  0  0  0  0
  -41.6456  -39.3373   -3.0573 N   0  0  0  0  0  0
  -39.1988  -38.5600   -3.1559 C   0  0  0  0  0  0
  -37.9242  -39.1329   -3.1891 C   0  0  0  0  0  0
  -37.7876  -40.5200   -3.1232 C   0  0  0  0  0  0
  -38.8276  -41.3886   -3.0581 N   0  0  0  0  0  0
  -39.4363  -37.1173   -3.2042 C   0  0  0  0  0  0
  -39.2100  -36.4132   -4.3832 C   0  0  0  0  0  0
  -39.6107  -35.0884   -4.4742 C   0  0  0  0  0  0
  -40.2304  -34.4584   -3.3864 C   0  0  0  0  0  0
  -40.3526  -35.1494   -2.1747 C   0  0  0  0  0  0
  -39.9751  -36.4790   -2.0908 C   0  0  0  0  0  0
  -40.7127  -33.0408   -3.5642 C   0  0  0  0  0  0
  -40.0321  -32.2929   -4.2576 O   0  0  0  0  0  0
  -41.8946  -32.6250   -3.0546 N   0  0  0  0  0  0
  -42.3446  -31.2451   -3.2842 C   0  0  0  0  0  0
  -43.3403  -31.0306   -2.1595 C   0  0  0  0  0  0
  -43.9364  -32.4145   -1.9304 C   0  0  0  0  0  0
  -42.7382  -33.3319   -2.0811 C   0  0  0  0  0  0
  -42.2066  -38.4984   -3.0599 H   0  0  0  0  0  0
  -46.7334  -39.5996   -3.0649 H   0  0  0  0  0  0
  -44.3771  -38.9430   -2.9722 H   0  0  0  0  0  0
  -43.2337  -43.0935   -3.0567 H   0  0  0  0  0  0
  -45.5777  -43.7452   -3.1488 H   0  0  0  0  0  0
  -48.4152  -41.3374   -3.6018 H   0  0  0  0  0  0
  -47.8452  -42.9766   -3.9551 H   0  0  0  0  0  0
  -50.3650  -42.7626   -2.7654 H   0  0  0  0  0  0
  -49.4524  -44.2906   -2.8407 H   0  0  0  0  0  0
  -49.6975  -44.6050   -0.3674 H   0  0  0  0  0  0
  -51.2889  -44.3563   -1.0497 H   0  0  0  0  0  0
  -48.7056  -42.6934    0.9286 H   0  0  0  0  0  0
  -49.6192  -41.1988    0.9426 H   0  0  0  0  0  0
  -47.6255  -41.1166   -0.6601 H   0  0  0  0  0  0
  -49.1823  -40.7301   -1.4247 H   0  0  0  0  0  0
  -37.0475  -38.5029   -3.2480 H   0  0  0  0  0  0
  -36.8137  -40.9761   -3.1247 H   0  0  0  0  0  0
  -38.7799  -36.9049   -5.2443 H   0  0  0  0  0  0
  -39.4743  -34.5692   -5.4128 H   0  0  0  0  0  0
  -40.7428  -34.6933   -1.2815 H   0  0  0  0  0  0
  -40.1262  -37.0198   -1.1670 H   0  0  0  0  0  0
  -42.8703  -31.1723   -4.2374 H   0  0  0  0  0  0
  -41.5431  -30.5102   -3.1852 H   0  0  0  0  0  0
  -44.0273  -30.2324   -2.4069 H   0  0  0  0  0  0
  -42.8356  -30.6900   -1.2607 H   0  0  0  0  0  0
  -44.4325  -32.5258   -0.9660 H   0  0  0  0  0  0
  -44.6482  -32.6943   -2.7052 H   0  0  0  0  0  0
  -42.2317  -33.3626   -1.1157 H   0  0  0  0  0  0
  -43.0170  -34.3357   -2.4056 H   0  0  0  0  0  0
  -47.7412  -43.3140   -1.5026 H   0  0  0  0  0  0
  1  6  1  0  0  0
  1  2  2  0  0  0
  1 37  1  0  0  0
  2  3  1  0  0  0
  2 38  1  0  0  0
  3  4  2  0  0  0
  3 14  1  0  0  0
  4  5  1  0  0  0
  4 39  1  0  0  0
  5  6  2  0  0  0
  5 40  1  0  0  0
  6  7  1  0  0  0
  7  8  1  0  0  0
  7 41  1  0  0  0
  7 42  1  0  0  0
  8 13  1  0  0  0
  8  9  1  0  0  0
  8 65  1  0  0  0
  9 10  1  0  0  0
  9 43  1  0  0  0
  9 44  1  0  0  0
 10 11  1  0  0  0
 10 45  1  0  0  0
 10 46  1  0  0  0
 11 12  1  0  0  0
 12 13  1  0  0  0
 12 47  1  0  0  0
 12 48  1  0  0  0
 13 49  1  0  0  0
 13 50  1  0  0  0
 14 15  2  0  0  0
 14 18  1  0  0  0
 15 16  1  0  0  0
 16 22  1  0  0  0
 16 17  2  0  0  0
 17 18  1  0  0  0
 17 19  1  0  0  0
 18 36  1  0  0  0
 19 23  1  0  0  0
 19 20  2  0  0  0
 20 51  1  0  0  0
 20 21  1  0  0  0
 21 52  1  0  0  0
 21 22  2  0  0  0
 23 28  1  0  0  0
 23 24  2  0  0  0
 24 25  1  0  0  0
 24 53  1  0  0  0
 25 26  2  0  0  0
 25 54  1  0  0  0
 26 27  1  0  0  0
 26 29  1  0  0  0
 27 28  2  0  0  0
 27 55  1  0  0  0
 28 56  1  0  0  0
 29 30  2  0  0  0
 29 31  1  0  0  0
 31 35  1  0  0  0
 31 32  1  0  0  0
 32 33  1  0  0  0
 32 57  1  0  0  0
 32 58  1  0  0  0
 33 34  1  0  0  0
 33 59  1  0  0  0
 33 60  1  0  0  0
 34 35  1  0  0  0
 34 61  1  0  0  0
 34 62  1  0  0  0
 35 63  1  0  0  0
 35 64  1  0  0  0
M  CHG  1   8   1
M  END
> <s_m_source_file>
/home/yujie/leadopt/data/result/selection/CDK9/lig_2.sdf

> <i_m_source_file_index>
1

> <i_lp_mmshare_version>
51139

> <i_f3d_flags>
0

> <s_epik_input>
W0NIMl0xW0NIMl1PW0NIMl1bQ0gyXU4xW0NIMl1jKFtjSF1bY0hdMilbY0hdW2NIXWMyLWMoW25IXTMpbmMoYzM0KWMoW2NIXVtjSF1uNCktYzVbY0hdW2NIXWMoW2NIXVtjSF01KUMoPU8pTjZbQ0gyXVtDSDJdW0NIMl1bQ0gyXTY=

> <s_epik_cmdline>
J2VwaWtfcHl0aG9uJywgJy1waHQnLCAnMi4wJywgJy1waCcsICc3LjAnLCAnLXRuJywgJzgnLCAnLW1hJywgJzIwMCcsICctaW1hZScsICc8aW5maWxlLm1hZT4nLCAnLW9tYWUnLCAnPG91dGZpbGUubWFlPic=

> <r_lp_tautomer_probability>
0.641916

> <r_epik_Ionization_Penalty>
  0.5833

> <r_epik_Ionization_Penalty_Charging>
  0.5711

> <r_epik_Ionization_Penalty_Neutral>
  0.0123

> <r_epik_State_Penalty>
  0.8371

> <r_epik_Charging_Adjusted_Penalty>
1.40814

> <i_epik_Tot_Q>
1

> <i_epik_Tot_abs_Q>
1

> <s_lp_Force_Field>
OPLS3e

> <r_lp_Energy>
57.2384

> <b_lp_Chiralities_Consistent>
1

> <s_lp_Variant>
/home/yujie/leadopt/data/result/selection/CDK9/lig_2.sdf:1-2

> <s_i_glide_gridfile>
glide-grid_CDK9

> <i_i_glide_lignum>
2

> <i_i_glide_rotatable_bonds>
6

> <r_i_docking_score>
-6.93861919093539

> <r_i_glide_ligand_efficiency>
-0.198246262598154

> <r_i_glide_ligand_efficiency_sa>
-0.648476669937102

> <r_i_glide_ligand_efficiency_ln>
-1.52318090676627

> <r_i_glide_gscore>
-7.77568519093539

> <r_i_glide_lipo>
-2.33374118762118

> <r_i_glide_hbond>
-0.381800137667354

> <r_i_glide_metal>
-0

> <r_i_glide_rewards>
-1.87963286885492

> <r_i_glide_evdw>
-41.8977279663086

> <r_i_glide_ecoul>
-9.82726669311523

> <r_i_glide_erotb>
0.551770840055142

> <r_i_glide_esite>
-0.163305434564373

> <r_i_glide_emodel>
-77.9503794307089

> <r_i_glide_energy>
-51.7249946594238

> <r_i_glide_einternal>
3.6576623916626

> <i_i_glide_confnum>
8

> <i_i_glide_posenum>
307

> <r_i_glide_eff_state_penalty>
0.837066

$$$$
