@<TRIPOS>MOLECULE
/home/yujie/leadopt/data/result/selection/CDK9/lig_21.sdf:1
56   59    1
SMALL
USER_CHARGES


@<TRIPOS>ATOM
      1 C1        -41.5719  -34.2644   -2.2665 C.3       1 UNK         0.0000 
      2 N2        -40.4863  -34.9996   -2.9275 N.pl3     1 UNK         0.0000 
      3 C3        -40.4013  -36.3793   -2.8694 C.ar      1 UNK         0.0000 
      4 C4        -39.4431  -37.1452   -3.4460 C.ar      1 UNK         0.0000 
      5 C5        -38.4335  -36.3891   -4.1811 C.ar      1 UNK         0.0000 
      6 C6        -38.4977  -35.0420   -4.2586 C.ar      1 UNK         0.0000 
      7 C7        -39.5775  -34.2640   -3.6655 C.ar      1 UNK         0.0000 
      8 O8        -39.6299  -33.0517   -3.8869 O.2       1 UNK         0.0000 
      9 C9        -39.3667  -38.6275   -3.3215 C.ar      1 UNK         0.0000 
     10 C10       -38.1180  -39.2664   -3.3496 C.ar      1 UNK         0.0000 
     11 C11       -38.0246  -40.6487   -3.2093 C.ar      1 UNK         0.0000 
     12 N12       -39.0815  -41.4876   -3.0581 N.ar      1 UNK         0.0000 
     13 C13       -40.2682  -40.8760   -3.0556 C.ar      1 UNK         0.0000 
     14 C14       -40.4971  -39.4721   -3.1684 C.ar      1 UNK         0.0000 
     15 C15       -41.9227  -39.3112   -3.1090 C.ar      1 UNK         0.0000 
     16 C16       -42.5042  -40.5607   -2.9568 C.ar      1 UNK         0.0000 
     17 N17       -41.4895  -41.4917   -2.9104 N.pl3     1 UNK         0.0000 
     18 C18       -43.9712  -40.9445   -2.8721 C.3       1 UNK         0.0000 
     19 C19       -44.2987  -42.4275   -3.1441 C.3       1 UNK         0.0000 
     20 C20       -45.8168  -42.7026   -3.1052 C.3       1 UNK         0.0000 
     21 N21       -46.4477  -42.2377   -1.8552 N.3       1 UNK         0.0000 
     22 C22       -46.1670  -40.8157   -1.6034 C.3       1 UNK         0.0000 
     23 C23       -44.6557  -40.5113   -1.5637 C.3       1 UNK         0.0000 
     24 C24       -47.9073  -42.4593   -1.8290 C.3       1 UNK         0.0000 
     25 C25       -48.2611  -43.9646   -1.7766 C.2       1 UNK         0.0000 
     26 O26       -48.6058  -44.4999   -2.8338 O.2       1 UNK         0.0000 
     27 N27       -48.2106  -44.6441   -0.6007 N.am      1 UNK         0.0000 
     28 C28       -48.5466  -46.0683   -0.5198 C.3       1 UNK         0.0000 
     29 C29       -47.8688  -44.0427    0.6909 C.3       1 UNK         0.0000 
     30 H30       -41.6604  -42.4818   -2.7701 H         1 UNK         0.0000 
     31 H31       -41.6527  -34.5746   -1.2236 H         1 UNK         0.0000 
     32 H32       -41.4337  -33.1803   -2.2609 H         1 UNK         0.0000 
     33 H33       -42.5224  -34.4793   -2.7550 H         1 UNK         0.0000 
     34 H34       -41.1911  -36.7903   -2.2563 H         1 UNK         0.0000 
     35 H35       -37.6293  -36.9058   -4.6785 H         1 UNK         0.0000 
     36 H36       -37.7377  -34.5046   -4.8041 H         1 UNK         0.0000 
     37 H37       -37.2047  -38.6978   -3.4419 H         1 UNK         0.0000 
     38 H38       -37.0427  -41.0941   -3.2037 H         1 UNK         0.0000 
     39 H39       -42.4860  -38.3937   -3.1854 H         1 UNK         0.0000 
     40 H40       -44.4975  -40.3941   -3.6547 H         1 UNK         0.0000 
     41 H41       -43.8207  -43.0953   -2.4247 H         1 UNK         0.0000 
     42 H42       -43.9647  -42.6926   -4.1460 H         1 UNK         0.0000 
     43 H43       -45.9818  -43.7755   -3.2181 H         1 UNK         0.0000 
     44 H44       -46.3081  -42.2277   -3.9568 H         1 UNK         0.0000 
     45 H45       -46.6589  -40.2074   -2.3652 H         1 UNK         0.0000 
     46 H46       -46.6149  -40.5206   -0.6567 H         1 UNK         0.0000 
     47 H47       -44.5627  -39.4324   -1.4329 H         1 UNK         0.0000 
     48 H48       -44.2241  -41.0025   -0.6897 H         1 UNK         0.0000 
     49 H49       -48.3888  -42.0042   -2.6970 H         1 UNK         0.0000 
     50 H50       -48.3679  -41.9708   -0.9683 H         1 UNK         0.0000 
     51 H51       -47.6597  -46.6437   -0.2528 H         1 UNK         0.0000 
     52 H52       -48.9222  -46.4753   -1.4600 H         1 UNK         0.0000 
     53 H53       -49.3108  -46.2387    0.2393 H         1 UNK         0.0000 
     54 H54       -48.7726  -43.8729    1.2765 H         1 UNK         0.0000 
     55 H55       -47.2299  -44.7137    1.2643 H         1 UNK         0.0000 
     56 H56       -47.3388  -43.0945    0.6003 H         1 UNK         0.0000 
@<TRIPOS>BOND
     1    1    2 1    
     2    1   31 1    
     3    1   32 1    
     4    1   33 1    
     5    2    7 ar   
     6    2    3 ar   
     7    3    4 ar   
     8    3   34 1    
     9    4    5 ar   
    10    4    9 1    
    11    5    6 ar   
    12    5   35 1    
    13    6    7 ar   
    14    6   36 1    
    15    7    8 2    
    16    9   14 ar   
    17    9   10 ar   
    18   10   11 ar   
    19   10   37 1    
    20   11   12 ar   
    21   11   38 1    
    22   12   13 ar   
    23   13   17 ar   
    24   13   14 ar   
    25   14   15 ar   
    26   15   16 ar   
    27   15   39 1    
    28   16   17 ar   
    29   16   18 1    
    30   17   30 1    
    31   18   23 1    
    32   18   19 1    
    33   18   40 1    
    34   19   20 1    
    35   19   41 1    
    36   19   42 1    
    37   20   21 1    
    38   20   43 1    
    39   20   44 1    
    40   21   22 1    
    41   21   24 1    
    42   22   23 1    
    43   22   45 1    
    44   22   46 1    
    45   23   47 1    
    46   23   48 1    
    47   24   25 1    
    48   24   49 1    
    49   24   50 1    
    50   25   26 2    
    51   25   27 am   BACKBONE|DICT|INTERRES
    52   27   28 1    
    53   27   29 1    
    54   28   51 1    
    55   28   52 1    
    56   28   53 1    
    57   29   54 1    
    58   29   55 1    
    59   29   56 1    
@<TRIPOS>SUBSTRUCTURE
     1 UNK         1 GROUP             0       ****    0 ROOT    
