/home/yujie/leadopt/data/result/selection/CDK9/lig_20.sdf:1
                    3D
 Schrodinger Suite 2020-3.
 69 73  0  0  1  0            999 V2000
  -42.9895  -31.8855   -2.6527 C   0  0  0  0  0  0
  -42.0617  -33.0621   -2.8330 C   0  0  0  0  0  0
  -40.9872  -33.0679   -3.6768 N   0  3  0  0  0  0
  -40.3903  -34.3153   -3.6554 C   0  0  0  0  0  0
  -39.3036  -34.8301   -4.3642 C   0  0  0  0  0  0
  -39.0223  -36.1838   -4.1789 C   0  0  0  0  0  0
  -39.7565  -36.9916   -3.3024 C   0  0  0  0  0  0
  -40.7858  -36.4385   -2.5280 C   0  0  0  0  0  0
  -41.1172  -35.0969   -2.7386 C   0  0  0  0  0  0
  -42.1212  -34.2845   -2.1946 N   0  0  0  0  0  0
  -43.1207  -34.6520   -1.1790 C   0  0  0  0  0  0
  -42.4598  -35.2170    0.0928 C   0  0  0  0  0  0
  -44.1834  -35.5919   -1.7774 C   0  0  0  0  0  0
  -39.4729  -38.4483   -3.2125 C   0  0  0  0  0  0
  -38.1609  -38.9446   -3.2009 C   0  0  0  0  0  0
  -37.9353  -40.3189   -3.1231 C   0  0  0  0  0  0
  -38.9146  -41.2582   -3.0567 N   0  0  0  0  0  0
  -40.1582  -40.7707   -3.0633 C   0  0  0  0  0  0
  -40.5171  -39.4005   -3.1448 C   0  0  0  0  0  0
  -41.9537  -39.3682   -3.1437 C   0  0  0  0  0  0
  -42.4240  -40.6663   -3.0308 C   0  0  0  0  0  0
  -41.3263  -41.4935   -2.9798 N   0  0  0  0  0  0
  -43.8351  -41.2331   -2.9825 C   0  0  0  0  0  0
  -44.0821  -42.2412   -1.8435 C   0  0  0  0  0  0
  -45.5039  -42.8294   -1.8978 C   0  0  0  0  0  0
  -46.5492  -41.7936   -1.8565 N   0  0  1  0  0  0
  -46.3633  -40.8079   -2.9355 C   0  0  0  0  0  0
  -44.9544  -40.1714   -2.9442 C   0  0  0  0  0  0
  -47.9288  -42.3338   -1.8990 C   0  0  0  0  0  0
  -48.3848  -43.1633   -0.6565 C   0  0  0  0  0  0
  -47.5811  -43.4937    0.2185 O   0  0  0  0  0  0
  -49.6923  -43.5312   -0.5699 N   0  0  0  0  0  0
  -50.2192  -44.2718    0.5820 C   0  0  0  0  0  0
  -50.7164  -43.2474   -1.5793 C   0  0  0  0  0  0
  -41.4228  -42.4973   -2.8705 H   0  0  0  0  0  0
  -42.8319  -31.3980   -1.6913 H   0  0  0  0  0  0
  -42.8565  -31.1234   -3.4203 H   0  0  0  0  0  0
  -44.0294  -32.2010   -2.6940 H   0  0  0  0  0  0
  -38.7286  -34.2375   -5.0564 H   0  0  0  0  0  0
  -38.2228  -36.6263   -4.7564 H   0  0  0  0  0  0
  -41.3357  -37.0521   -1.8322 H   0  0  0  0  0  0
  -43.6201  -33.7344   -0.8640 H   0  0  0  0  0  0
  -43.1303  -35.0937    0.9434 H   0  0  0  0  0  0
  -42.2296  -36.2787    0.0208 H   0  0  0  0  0  0
  -41.5368  -34.6935    0.3426 H   0  0  0  0  0  0
  -44.9629  -35.8124   -1.0470 H   0  0  0  0  0  0
  -44.6666  -35.1470   -2.6480 H   0  0  0  0  0  0
  -43.7548  -36.5448   -2.0881 H   0  0  0  0  0  0
  -37.3172  -38.2706   -3.2447 H   0  0  0  0  0  0
  -36.9223  -40.6933   -3.1066 H   0  0  0  0  0  0
  -42.5899  -38.4999   -3.2182 H   0  0  0  0  0  0
  -44.0077  -41.7989   -3.9001 H   0  0  0  0  0  0
  -43.9367  -41.7931   -0.8585 H   0  0  0  0  0  0
  -43.4118  -43.0924   -1.9365 H   0  0  0  0  0  0
  -45.6099  -43.4937   -1.0472 H   0  0  0  0  0  0
  -45.6328  -43.4497   -2.7869 H   0  0  0  0  0  0
  -46.5703  -41.2799   -3.8982 H   0  0  0  0  0  0
  -47.1046  -40.0155   -2.8200 H   0  0  0  0  0  0
  -44.8977  -39.5411   -3.8329 H   0  0  0  0  0  0
  -44.8744  -39.5336   -2.0623 H   0  0  0  0  0  0
  -48.0644  -42.9402   -2.7968 H   0  0  0  0  0  0
  -48.6136  -41.4864   -1.9609 H   0  0  0  0  0  0
  -50.6289  -45.2293    0.2588 H   0  0  0  0  0  0
  -51.0207  -43.7068    1.0594 H   0  0  0  0  0  0
  -49.4658  -44.4773    1.3453 H   0  0  0  0  0  0
  -51.1703  -44.1793   -1.9190 H   0  0  0  0  0  0
  -51.5072  -42.6326   -1.1452 H   0  0  0  0  0  0
  -50.3459  -42.7314   -2.4644 H   0  0  0  0  0  0
  -40.7477  -32.2589   -4.2251 H   0  0  0  0  0  0
  1  2  1  0  0  0
  1 36  1  0  0  0
  1 37  1  0  0  0
  1 38  1  0  0  0
  2 10  1  0  0  0
  2  3  2  0  0  0
  3  4  1  0  0  0
  3 69  1  0  0  0
  4  9  2  0  0  0
  4  5  1  0  0  0
  5  6  2  0  0  0
  5 39  1  0  0  0
  6  7  1  0  0  0
  6 40  1  0  0  0
  7  8  2  0  0  0
  7 14  1  0  0  0
  8  9  1  0  0  0
  8 41  1  0  0  0
  9 10  1  0  0  0
 10 11  1  0  0  0
 11 12  1  0  0  0
 11 13  1  0  0  0
 11 42  1  0  0  0
 12 43  1  0  0  0
 12 44  1  0  0  0
 12 45  1  0  0  0
 13 46  1  0  0  0
 13 47  1  0  0  0
 13 48  1  0  0  0
 14 19  1  0  0  0
 14 15  2  0  0  0
 15 16  1  0  0  0
 15 49  1  0  0  0
 16 17  2  0  0  0
 16 50  1  0  0  0
 17 18  1  0  0  0
 18 22  1  0  0  0
 18 19  2  0  0  0
 19 20  1  0  0  0
 20 21  2  0  0  0
 20 51  1  0  0  0
 21 22  1  0  0  0
 21 23  1  0  0  0
 22 35  1  0  0  0
 23 28  1  0  0  0
 23 24  1  0  0  0
 23 52  1  0  0  0
 24 25  1  0  0  0
 24 53  1  0  0  0
 24 54  1  0  0  0
 25 26  1  0  0  0
 25 55  1  0  0  0
 25 56  1  0  0  0
 26 27  1  0  0  0
 26 29  1  0  0  0
 27 28  1  0  0  0
 27 57  1  0  0  0
 27 58  1  0  0  0
 28 59  1  0  0  0
 28 60  1  0  0  0
 29 30  1  0  0  0
 29 61  1  0  0  0
 29 62  1  0  0  0
 30 31  2  0  0  0
 30 32  1  0  0  0
 32 33  1  0  0  0
 32 34  1  0  0  0
 33 63  1  0  0  0
 33 64  1  0  0  0
 33 65  1  0  0  0
 34 66  1  0  0  0
 34 67  1  0  0  0
 34 68  1  0  0  0
M  CHG  1   3   1
M  END
> <s_m_source_file>
/home/yujie/leadopt/data/result/selection/CDK9/lig_20.sdf

> <i_m_source_file_index>
1

> <i_lp_mmshare_version>
51139

> <i_f3d_flags>
0

> <s_epik_input>
W0NIM11jKG4xKW4oW0NIXShbQ0gzXSlbQ0gzXSljKGMxMilbY0hdYyhbY0hdW2NIXTIpLWMoW2NIXVtjSF1uMyljKGMzNClbY0hdYyhbbkhdNClbQ0hdNVtDSDJdW0NIMl1OKFtDSDJdW0NIMl01KVtDSDJdQyg9TylOKFtDSDNdKVtDSDNd

> <s_epik_cmdline>
J2VwaWtfcHl0aG9uJywgJy1waHQnLCAnMi4wJywgJy1waCcsICc3LjAnLCAnLXRuJywgJzgnLCAnLW1hJywgJzIwMCcsICctaW1hZScsICc8aW5maWxlLm1hZT4nLCAnLW9tYWUnLCAnPG91dGZpbGUubWFlPic=

> <r_epik_Ionization_Penalty>
  2.2924

> <r_epik_Ionization_Penalty_Charging>
  1.0502

> <r_epik_Ionization_Penalty_Neutral>
  1.2423

> <r_epik_State_Penalty>
  2.4113

> <r_epik_Charging_Adjusted_Penalty>
3.46146

> <i_epik_Tot_Q>
1

> <i_epik_Tot_abs_Q>
1

> <s_lp_Force_Field>
OPLS3e

> <r_lp_Energy>
47.574

> <b_lp_Chiralities_Consistent>
1

> <s_lp_Variant>
/home/yujie/leadopt/data/result/selection/CDK9/lig_20.sdf:1-4

> <s_i_glide_gridfile>
glide-grid_CDK9

> <i_i_glide_lignum>
4

> <i_i_glide_rotatable_bonds>
6

> <r_i_docking_score>
-5.87944533352355

> <r_i_glide_ligand_efficiency>
-0.172924862750693

> <r_i_glide_ligand_efficiency_sa>
-0.560209425442933

> <r_i_glide_ligand_efficiency_ln>
-1.29893438703099

> <r_i_glide_gscore>
-8.29071533352355

> <r_i_glide_lipo>
-2.80468582599741

> <r_i_glide_hbond>
-0.465283511949351

> <r_i_glide_metal>
-0

> <r_i_glide_rewards>
-1.7461495508261

> <r_i_glide_evdw>
-48.2270622253418

> <r_i_glide_ecoul>
-5.98292875289917

> <r_i_glide_erotb>
0.266719872827193

> <r_i_glide_esite>
-0.232523893375909

> <r_i_glide_emodel>
-82.4337256954361

> <r_i_glide_energy>
-54.209990978241

> <r_i_glide_einternal>
4.14116764068604

> <i_i_glide_confnum>
12

> <i_i_glide_posenum>
171

> <r_i_glide_eff_state_penalty>
2.41127

$$$$
