@<TRIPOS>MOLECULE
/home/yujie/leadopt/data/result/selection/CDK9/lig_11.sdf:1
43   46    1
SMALL
USER_CHARGES


@<TRIPOS>ATOM
      1 C1        -41.2972  -36.3733   -0.1957 C.3       1 UNK         0.0000 
      2 O2        -40.7072  -37.0808   -1.2819 O.3       1 UNK         0.0000 
      3 C3        -40.2322  -36.3923   -2.3844 C.ar      1 UNK         0.0000 
      4 C4        -40.2981  -34.9928   -2.5061 C.ar      1 UNK         0.0000 
      5 C5        -39.7501  -34.3504   -3.6141 C.ar      1 UNK         0.0000 
      6 C6        -39.1330  -35.0918   -4.6110 C.ar      1 UNK         0.0000 
      7 C7        -39.0732  -36.4776   -4.5122 C.ar      1 UNK         0.0000 
      8 C8        -39.6251  -37.1441   -3.4124 C.ar      1 UNK         0.0000 
      9 C9        -39.5080  -38.6252   -3.3384 C.ar      1 UNK         0.0000 
     10 C10       -38.2536  -39.2397   -3.4512 C.ar      1 UNK         0.0000 
     11 C11       -38.1415  -40.6273   -3.3541 C.ar      1 UNK         0.0000 
     12 N12       -39.1850  -41.4709   -3.1487 N.ar      1 UNK         0.0000 
     13 C13       -40.3739  -40.8699   -3.0571 C.ar      1 UNK         0.0000 
     14 C14       -40.6243  -39.4769   -3.1493 C.ar      1 UNK         0.0000 
     15 C15       -42.0484  -39.3233   -3.0145 C.ar      1 UNK         0.0000 
     16 C16       -42.5996  -40.5801   -2.7975 C.ar      1 UNK         0.0000 
     17 N17       -41.5720  -41.4935   -2.8213 N.pl3     1 UNK         0.0000 
     18 C18       -44.0301  -41.0215   -2.5507 C.3       1 UNK         0.0000 
     19 C19       -44.5360  -42.1347   -3.5024 C.3       1 UNK         0.0000 
     20 C20       -45.9821  -42.5534   -3.1582 C.3       1 UNK         0.0000 
     21 O21       -46.0686  -42.9455   -1.7924 O.3       1 UNK         0.0000 
     22 C22       -45.7611  -41.9014   -0.8748 C.3       1 UNK         0.0000 
     23 C23       -44.3096  -41.4124   -1.0795 C.3       1 UNK         0.0000 
     24 F24       -39.7997  -33.0031   -3.7200 F         1 UNK         0.0000 
     25 H25       -41.7188  -42.4838   -2.6577 H         1 UNK         0.0000 
     26 H26       -41.5741  -37.0827    0.5865 H         1 UNK         0.0000 
     27 H27       -40.6051  -35.6530    0.2452 H         1 UNK         0.0000 
     28 H28       -42.2061  -35.8545   -0.5058 H         1 UNK         0.0000 
     29 H29       -40.7643  -34.3834   -1.7480 H         1 UNK         0.0000 
     30 H30       -38.6918  -34.5883   -5.4544 H         1 UNK         0.0000 
     31 H31       -38.5927  -37.0400   -5.3000 H         1 UNK         0.0000 
     32 H32       -37.3646  -38.6428   -3.5934 H         1 UNK         0.0000 
     33 H33       -37.1718  -41.0935   -3.4315 H         1 UNK         0.0000 
     34 H34       -42.6121  -38.4045   -3.0371 H         1 UNK         0.0000 
     35 H35       -44.6991  -40.1800   -2.7419 H         1 UNK         0.0000 
     36 H36       -44.5254  -41.8025   -4.5404 H         1 UNK         0.0000 
     37 H37       -43.9168  -43.0271   -3.4029 H         1 UNK         0.0000 
     38 H38       -46.6826  -41.7406   -3.3622 H         1 UNK         0.0000 
     39 H39       -46.2930  -43.3926   -3.7828 H         1 UNK         0.0000 
     40 H40       -46.4714  -41.0791   -0.9864 H         1 UNK         0.0000 
     41 H41       -45.8918  -42.2937    0.1352 H         1 UNK         0.0000 
     42 H42       -43.6579  -42.2322   -0.7777 H         1 UNK         0.0000 
     43 H43       -44.1447  -40.5588   -0.4230 H         1 UNK         0.0000 
@<TRIPOS>BOND
     1    1    2 1    
     2    1   26 1    
     3    1   27 1    
     4    1   28 1    
     5    2    3 1    
     6    3    8 ar   
     7    3    4 ar   
     8    4    5 ar   
     9    4   29 1    
    10    5    6 ar   
    11    5   24 1    
    12    6    7 ar   
    13    6   30 1    
    14    7    8 ar   
    15    7   31 1    
    16    8    9 1    
    17    9   14 ar   
    18    9   10 ar   
    19   10   11 ar   
    20   10   32 1    
    21   11   12 ar   
    22   11   33 1    
    23   12   13 ar   
    24   13   17 ar   
    25   13   14 ar   
    26   14   15 ar   
    27   15   16 ar   
    28   15   34 1    
    29   16   17 ar   
    30   16   18 1    
    31   17   25 1    
    32   18   23 1    
    33   18   19 1    
    34   18   35 1    
    35   19   20 1    
    36   19   36 1    
    37   19   37 1    
    38   20   21 1    
    39   20   38 1    
    40   20   39 1    
    41   21   22 1    
    42   22   23 1    
    43   22   40 1    
    44   22   41 1    
    45   23   42 1    
    46   23   43 1    
@<TRIPOS>SUBSTRUCTURE
     1 UNK         1 GROUP             0       ****    0 ROOT    
