@<TRIPOS>MOLECULE
/home/yujie/leadopt/data/result/selection/CDK9/lig_24.sdf:1
63   66    1
SMALL
USER_CHARGES


@<TRIPOS>ATOM
      1 C1        -43.3312  -33.9709   -3.7637 C.3       1 UNK         0.0000 
      2 C2        -42.3664  -34.5481   -2.7041 C.3       1 UNK         0.0000 
      3 C3        -42.1839  -33.5874   -1.5229 C.3       1 UNK         0.0000 
      4 N4        -41.0864  -35.0921   -3.2325 N.pl3     1 UNK         0.0000 
      5 C5        -40.8052  -36.4370   -3.1005 C.ar      1 UNK         0.0000 
      6 C6        -39.7323  -37.1060   -3.5842 C.ar      1 UNK         0.0000 
      7 C7        -38.7675  -36.2590   -4.2787 C.ar      1 UNK         0.0000 
      8 C8        -38.9816  -34.9282   -4.3904 C.ar      1 UNK         0.0000 
      9 C9        -40.1708  -34.2613   -3.8638 C.ar      1 UNK         0.0000 
     10 O10       -40.2852  -33.0469   -4.0405 O.2       1 UNK         0.0000 
     11 C11       -39.5434  -38.5730   -3.4004 C.ar      1 UNK         0.0000 
     12 C12       -38.2657  -39.1549   -3.4565 C.ar      1 UNK         0.0000 
     13 C13       -38.1063  -40.5314   -3.2868 C.ar      1 UNK         0.0000 
     14 N14       -39.1219  -41.4015   -3.0570 N.ar      1 UNK         0.0000 
     15 C15       -40.3313  -40.8416   -3.0030 C.ar      1 UNK         0.0000 
     16 C16       -40.6269  -39.4601   -3.1642 C.ar      1 UNK         0.0000 
     17 C17       -42.0584  -39.3639   -3.0563 C.ar      1 UNK         0.0000 
     18 C18       -42.5644  -40.6065   -2.7362 C.ar      1 UNK         0.0000 
     19 N19       -41.5133  -41.4932   -2.7381 N.pl3     1 UNK         0.0000 
     20 C20       -43.9927  -41.0322   -2.4796 C.3       1 UNK         0.0000 
     21 C21       -44.8295  -41.2104   -3.7677 C.3       1 UNK         0.0000 
     22 C22       -46.2062  -41.8494   -3.5848 C.3       1 UNK         0.0000 
     23 N23       -46.0170  -43.0934   -2.6962 N.4       1 UNK         0.0000 
     24 C24       -45.6548  -42.6312   -1.2696 C.3       1 UNK         0.0000 
     25 C25       -44.2444  -42.0169   -1.3054 C.3       1 UNK         0.0000 
     26 C26       -47.2528  -44.0318   -2.7311 C.3       1 UNK         0.0000 
     27 C27       -47.2346  -44.9056   -4.0123 C.2       1 UNK         0.0000 
     28 O28       -46.4297  -44.6455   -4.9127 O.2       1 UNK         0.0000 
     29 N29       -48.1083  -45.9371   -4.1162 N.am      1 UNK         0.0000 
     30 C30       -49.0330  -46.3541   -3.0602 C.3       1 UNK         0.0000 
     31 C31       -48.0690  -46.8641   -5.2519 C.3       1 UNK         0.0000 
     32 H32       -41.6303  -42.4845   -2.5519 H         1 UNK         0.0000 
     33 H33       -44.2514  -33.6255   -3.2913 H         1 UNK         0.0000 
     34 H34       -42.9128  -33.0941   -4.2566 H         1 UNK         0.0000 
     35 H35       -43.6289  -34.7165   -4.5026 H         1 UNK         0.0000 
     36 H36       -42.9150  -35.3911   -2.2826 H         1 UNK         0.0000 
     37 H37       -43.1427  -33.2528   -1.1264 H         1 UNK         0.0000 
     38 H38       -41.6322  -34.0396   -0.6980 H         1 UNK         0.0000 
     39 H39       -41.6675  -32.6939   -1.8567 H         1 UNK         0.0000 
     40 H40       -41.5337  -36.9122   -2.4663 H         1 UNK         0.0000 
     41 H41       -37.8719  -36.6843   -4.7069 H         1 UNK         0.0000 
     42 H42       -38.2546  -34.3171   -4.9024 H         1 UNK         0.0000 
     43 H43       -37.3860  -38.5490   -3.6156 H         1 UNK         0.0000 
     44 H44       -37.1187  -40.9699   -3.3266 H         1 UNK         0.0000 
     45 H45       -42.6843  -38.4940   -3.1748 H         1 UNK         0.0000 
     46 H46       -44.5458  -40.1847   -2.0671 H         1 UNK         0.0000 
     47 H47       -44.2966  -41.8935   -4.4338 H         1 UNK         0.0000 
     48 H48       -44.9605  -40.2469   -4.2567 H         1 UNK         0.0000 
     49 H49       -46.6441  -42.1445   -4.5391 H         1 UNK         0.0000 
     50 H50       -46.9048  -41.1831   -3.0750 H         1 UNK         0.0000 
     51 H51       -46.4118  -41.9145   -0.9411 H         1 UNK         0.0000 
     52 H52       -45.6959  -43.4936   -0.6143 H         1 UNK         0.0000 
     53 H53       -44.0403  -41.5414   -0.3433 H         1 UNK         0.0000 
     54 H54       -43.5773  -42.8732   -1.4130 H         1 UNK         0.0000 
     55 H55       -48.1380  -43.3998   -2.6485 H         1 UNK         0.0000 
     56 H56       -47.1675  -44.6702   -1.8507 H         1 UNK         0.0000 
     57 H57       -48.6747  -47.2767   -2.5995 H         1 UNK         0.0000 
     58 H58       -50.0196  -46.5534   -3.4810 H         1 UNK         0.0000 
     59 H59       -49.1669  -45.6145   -2.2709 H         1 UNK         0.0000 
     60 H60       -47.4729  -46.4905   -6.0850 H         1 UNK         0.0000 
     61 H61       -47.6341  -47.8162   -4.9435 H         1 UNK         0.0000 
     62 H62       -49.0739  -47.0512   -5.6309 H         1 UNK         0.0000 
     63 H63       -45.2449  -43.6470   -3.0498 H         1 UNK         0.0000 
@<TRIPOS>BOND
     1    1    2 1    
     2    1   33 1    
     3    1   34 1    
     4    1   35 1    
     5    2    3 1    
     6    2    4 1    
     7    2   36 1    
     8    3   37 1    
     9    3   38 1    
    10    3   39 1    
    11    4    9 ar   
    12    4    5 ar   
    13    5    6 ar   
    14    5   40 1    
    15    6    7 ar   
    16    6   11 1    
    17    7    8 ar   
    18    7   41 1    
    19    8    9 ar   
    20    8   42 1    
    21    9   10 2    
    22   11   16 ar   
    23   11   12 ar   
    24   12   13 ar   
    25   12   43 1    
    26   13   14 ar   
    27   13   44 1    
    28   14   15 ar   
    29   15   19 ar   
    30   15   16 ar   
    31   16   17 ar   
    32   17   18 ar   
    33   17   45 1    
    34   18   19 ar   
    35   18   20 1    
    36   19   32 1    
    37   20   25 1    
    38   20   21 1    
    39   20   46 1    
    40   21   22 1    
    41   21   47 1    
    42   21   48 1    
    43   22   23 1    
    44   22   49 1    
    45   22   50 1    
    46   23   24 1    
    47   23   26 1    
    48   23   63 1    
    49   24   25 1    
    50   24   51 1    
    51   24   52 1    
    52   25   53 1    
    53   25   54 1    
    54   26   27 1    
    55   26   55 1    
    56   26   56 1    
    57   27   28 2    
    58   27   29 am   BACKBONE|DICT|INTERRES
    59   29   30 1    
    60   29   31 1    
    61   30   57 1    
    62   30   58 1    
    63   30   59 1    
    64   31   60 1    
    65   31   61 1    
    66   31   62 1    
@<TRIPOS>SUBSTRUCTURE
     1 UNK         1 GROUP             0       ****    0 ROOT    
