@<TRIPOS>MOLECULE
/home/yujie/leadopt/data/result/selection/CDK9/lig_26.sdf:1
63   66    1
SMALL
USER_CHARGES


@<TRIPOS>ATOM
      1 C1        -50.9708  -42.6218   -3.6331 C.3       1 UNK         0.0000 
      2 N2        -50.3331  -41.5911   -4.4595 N.am      1 UNK         0.0000 
      3 C3        -51.2653  -40.9737   -5.4065 C.3       1 UNK         0.0000 
      4 C4        -49.0226  -41.2299   -4.3836 C.2       1 UNK         0.0000 
      5 O5        -48.5726  -40.2938   -5.0564 O.2       1 UNK         0.0000 
      6 C6        -48.0951  -42.0474   -3.4379 C.3       1 UNK         0.0000 
      7 N7        -46.6802  -41.6270   -3.4887 N.3       1 UNK         0.0000 
      8 C8        -46.4331  -40.4167   -2.6880 C.3       1 UNK         0.0000 
      9 C9        -44.9835  -39.9123   -2.8350 C.3       1 UNK         0.0000 
     10 C10       -43.9191  -41.0054   -2.5793 C.3       1 UNK         0.0000 
     11 C11       -44.3141  -42.3559   -3.2216 C.3       1 UNK         0.0000 
     12 C12       -45.8013  -42.7109   -3.0311 C.3       1 UNK         0.0000 
     13 C13       -42.4845  -40.5717   -2.8173 C.ar      1 UNK         0.0000 
     14 C14       -41.9271  -39.3232   -3.0569 C.ar      1 UNK         0.0000 
     15 C15       -40.5023  -39.4704   -3.1760 C.ar      1 UNK         0.0000 
     16 C16       -39.3814  -38.6211   -3.3824 C.ar      1 UNK         0.0000 
     17 C17       -38.1310  -39.2553   -3.4552 C.ar      1 UNK         0.0000 
     18 C18       -38.0259  -40.6367   -3.3155 C.ar      1 UNK         0.0000 
     19 N19       -39.0722  -41.4747   -3.1131 N.ar      1 UNK         0.0000 
     20 C20       -40.2593  -40.8709   -3.0567 C.ar      1 UNK         0.0000 
     21 N21       -41.4631  -41.4931   -2.8249 N.pl3     1 UNK         0.0000 
     22 C22       -39.4668  -37.1374   -3.5084 C.ar      1 UNK         0.0000 
     23 C23       -38.4569  -36.3676   -4.2311 C.ar      1 UNK         0.0000 
     24 C24       -38.5435  -35.0222   -4.3159 C.ar      1 UNK         0.0000 
     25 C25       -39.6239  -34.2547   -3.7115 C.ar      1 UNK         0.0000 
     26 O26       -39.6399  -33.0302   -3.8583 O.2       1 UNK         0.0000 
     27 N27       -40.5567  -35.0034   -3.0169 N.pl3     1 UNK         0.0000 
     28 C28       -40.4416  -36.3818   -2.9445 C.ar      1 UNK         0.0000 
     29 C29       -41.6214  -34.2589   -2.3158 C.3       1 UNK         0.0000 
     30 C30       -42.8266  -33.8970   -3.2097 C.3       1 UNK         0.0000 
     31 O31       -43.4012  -35.0305   -3.8564 O.3       1 UNK         0.0000 
     32 C32       -44.2054  -35.8570   -3.0251 C.3       1 UNK         0.0000 
     33 H33       -41.6282  -42.4818   -2.6574 H         1 UNK         0.0000 
     34 H34       -51.3230  -43.4430   -4.2616 H         1 UNK         0.0000 
     35 H35       -51.8368  -42.2024   -3.1171 H         1 UNK         0.0000 
     36 H36       -50.3218  -43.0512   -2.8676 H         1 UNK         0.0000 
     37 H37       -50.7779  -40.2937   -6.1059 H         1 UNK         0.0000 
     38 H38       -51.7564  -41.7437   -6.0036 H         1 UNK         0.0000 
     39 H39       -52.0370  -40.4165   -4.8731 H         1 UNK         0.0000 
     40 H40       -48.4642  -41.9933   -2.4114 H         1 UNK         0.0000 
     41 H41       -48.1791  -43.0884   -3.7565 H         1 UNK         0.0000 
     42 H42       -47.1018  -39.6228   -3.0232 H         1 UNK         0.0000 
     43 H43       -46.6823  -40.6006   -1.6404 H         1 UNK         0.0000 
     44 H44       -44.8983  -39.5127   -3.8460 H         1 UNK         0.0000 
     45 H45       -44.8554  -39.0925   -2.1258 H         1 UNK         0.0000 
     46 H46       -44.0619  -41.2161   -1.5167 H         1 UNK         0.0000 
     47 H47       -43.7395  -43.1710   -2.7801 H         1 UNK         0.0000 
     48 H48       -44.1328  -42.3381   -4.2965 H         1 UNK         0.0000 
     49 H49       -46.0251  -42.9728   -1.9943 H         1 UNK         0.0000 
     50 H50       -46.0068  -43.6055   -3.6224 H         1 UNK         0.0000 
     51 H51       -42.5026  -38.4140   -3.1276 H         1 UNK         0.0000 
     52 H52       -37.2240  -38.6855   -3.5850 H         1 UNK         0.0000 
     53 H53       -37.0493  -41.0935   -3.3516 H         1 UNK         0.0000 
     54 H54       -37.6302  -36.8656   -4.7132 H         1 UNK         0.0000 
     55 H55       -37.7857  -34.4759   -4.8540 H         1 UNK         0.0000 
     56 H56       -41.2302  -36.8042   -2.3417 H         1 UNK         0.0000 
     57 H57       -41.9710  -34.9164   -1.5209 H         1 UNK         0.0000 
     58 H58       -41.2303  -33.3626   -1.8300 H         1 UNK         0.0000 
     59 H59       -43.5780  -33.3460   -2.6408 H         1 UNK         0.0000 
     60 H60       -42.4964  -33.2066   -3.9858 H         1 UNK         0.0000 
     61 H61       -44.6065  -36.6822   -3.6134 H         1 UNK         0.0000 
     62 H62       -43.6352  -36.2881   -2.2019 H         1 UNK         0.0000 
     63 H63       -45.0487  -35.3021   -2.6119 H         1 UNK         0.0000 
@<TRIPOS>BOND
     1    1    2 1    
     2    1   34 1    
     3    1   35 1    
     4    1   36 1    
     5    2    3 1    
     6    2    4 am   BACKBONE|DICT|INTERRES
     7    3   37 1    
     8    3   38 1    
     9    3   39 1    
    10    4    5 2    
    11    4    6 1    
    12    6    7 1    
    13    6   40 1    
    14    6   41 1    
    15    7   12 1    
    16    7    8 1    
    17    8    9 1    
    18    8   42 1    
    19    8   43 1    
    20    9   10 1    
    21    9   44 1    
    22    9   45 1    
    23   10   11 1    
    24   10   13 1    
    25   10   46 1    
    26   11   12 1    
    27   11   47 1    
    28   11   48 1    
    29   12   49 1    
    30   12   50 1    
    31   13   21 ar   
    32   13   14 ar   
    33   14   15 ar   
    34   14   51 1    
    35   15   20 ar   
    36   15   16 ar   
    37   16   17 ar   
    38   16   22 1    
    39   17   18 ar   
    40   17   52 1    
    41   18   19 ar   
    42   18   53 1    
    43   19   20 ar   
    44   20   21 ar   
    45   21   33 1    
    46   22   28 ar   
    47   22   23 ar   
    48   23   24 ar   
    49   23   54 1    
    50   24   25 ar   
    51   24   55 1    
    52   25   26 2    
    53   25   27 ar   
    54   27   28 ar   
    55   27   29 1    
    56   28   56 1    
    57   29   30 1    
    58   29   57 1    
    59   29   58 1    
    60   30   31 1    
    61   30   59 1    
    62   30   60 1    
    63   31   32 1    
    64   32   61 1    
    65   32   62 1    
    66   32   63 1    
@<TRIPOS>SUBSTRUCTURE
     1 UNK         1 GROUP             0       ****    0 ROOT    
