@<TRIPOS>MOLECULE
/home/yujie/leadopt/data/result/selection/CDK9/lig_4.sdf:1
69   74    1
SMALL
USER_CHARGES


@<TRIPOS>ATOM
      1 C1        -41.0092  -36.4590    0.1387 C.3       1 UNK         0.0000 
      2 O2        -40.3920  -37.0935   -0.9803 O.3       1 UNK         0.0000 
      3 C3        -40.1178  -36.3685   -2.1298 C.ar      1 UNK         0.0000 
      4 C4        -40.4332  -35.0154   -2.2671 C.ar      1 UNK         0.0000 
      5 C5        -40.2908  -34.3390   -3.4862 C.ar      1 UNK         0.0000 
      6 C6        -39.6250  -35.0007   -4.5235 C.ar      1 UNK         0.0000 
      7 C7        -39.2288  -36.3246   -4.3859 C.ar      1 UNK         0.0000 
      8 C8        -39.5216  -37.0260   -3.2173 C.ar      1 UNK         0.0000 
      9 C9        -39.2604  -38.4719   -3.1767 C.ar      1 UNK         0.0000 
     10 C10       -37.9782  -39.0160   -3.2970 C.ar      1 UNK         0.0000 
     11 C11       -37.8033  -40.4002   -3.2595 C.ar      1 UNK         0.0000 
     12 N12       -38.8189  -41.2956   -3.1390 N.ar      1 UNK         0.0000 
     13 C13       -40.0495  -40.7874   -3.0572 C.ar      1 UNK         0.0000 
     14 C14       -40.3031  -39.3970   -3.0565 C.ar      1 UNK         0.0000 
     15 N15       -41.6733  -39.3090   -2.9303 N.pl3     1 UNK         0.0000 
     16 C16       -42.1656  -40.5974   -2.8800 C.ar      1 UNK         0.0000 
     17 N17       -41.2103  -41.4936   -2.9669 N.2       1 UNK         0.0000 
     18 C18       -43.6179  -40.9449   -2.8058 C.ar      1 UNK         0.0000 
     19 C19       -44.0401  -42.1351   -3.3992 C.ar      1 UNK         0.0000 
     20 C20       -45.3834  -42.4734   -3.4297 C.ar      1 UNK         0.0000 
     21 C21       -46.3228  -41.6577   -2.7997 C.ar      1 UNK         0.0000 
     22 C22       -45.9069  -40.4772   -2.1743 C.ar      1 UNK         0.0000 
     23 C23       -44.5592  -40.1160   -2.1868 C.ar      1 UNK         0.0000 
     24 C24       -47.7978  -42.0520   -2.8194 C.3       1 UNK         0.0000 
     25 N25       -48.2363  -43.1231   -1.7853 N.4       1 UNK         0.0000 
     26 C26       -47.9863  -42.6485   -0.3391 C.3       1 UNK         0.0000 
     27 C27       -48.4459  -43.7449    0.6416 C.3       1 UNK         0.0000 
     28 O28       -47.8166  -44.9895    0.3533 O.3       1 UNK         0.0000 
     29 C29       -48.0365  -45.4910   -0.9629 C.3       1 UNK         0.0000 
     30 C30       -47.5438  -44.4842   -2.0216 C.3       1 UNK         0.0000 
     31 C31       -40.8340  -32.9456   -3.7382 C.2       1 UNK         0.0000 
     32 O32       -40.3331  -32.2905   -4.6530 O.2       1 UNK         0.0000 
     33 N33       -41.9054  -32.4573   -3.0570 N.am      1 UNK         0.0000 
     34 C34       -42.6387  -33.0719   -1.9368 C.3       1 UNK         0.0000 
     35 C35       -43.7882  -32.1165   -1.6850 C.3       1 UNK         0.0000 
     36 C36       -43.2803  -30.7761   -2.2012 C.3       1 UNK         0.0000 
     37 C37       -42.4376  -31.1328   -3.4063 C.3       1 UNK         0.0000 
     38 H38       -42.2517  -38.4825   -2.8869 H         1 UNK         0.0000 
     39 H39       -41.1405  -37.1834    0.9411 H         1 UNK         0.0000 
     40 H40       -40.3974  -35.6469    0.5352 H         1 UNK         0.0000 
     41 H41       -41.9972  -36.0716   -0.1137 H         1 UNK         0.0000 
     42 H42       -40.8082  -34.5135   -1.4027 H         1 UNK         0.0000 
     43 H43       -39.4536  -34.5119   -5.4715 H         1 UNK         0.0000 
     44 H44       -38.7581  -36.8260   -5.2183 H         1 UNK         0.0000 
     45 H45       -37.1222  -38.3665   -3.4041 H         1 UNK         0.0000 
     46 H46       -36.8151  -40.8234   -3.3325 H         1 UNK         0.0000 
     47 H47       -43.3171  -42.7940   -3.8547 H         1 UNK         0.0000 
     48 H48       -45.6849  -43.3874   -3.9213 H         1 UNK         0.0000 
     49 H49       -46.6237  -39.8358   -1.6806 H         1 UNK         0.0000 
     50 H50       -44.2516  -39.1996   -1.7035 H         1 UNK         0.0000 
     51 H51       -48.4404  -41.1918   -2.6217 H         1 UNK         0.0000 
     52 H52       -48.0763  -42.4713   -3.7881 H         1 UNK         0.0000 
     53 H53       -46.9163  -42.4461   -0.2580 H         1 UNK         0.0000 
     54 H54       -48.5344  -41.7142   -0.2070 H         1 UNK         0.0000 
     55 H55       -49.5316  -43.8571    0.6286 H         1 UNK         0.0000 
     56 H56       -48.1749  -43.4636    1.6597 H         1 UNK         0.0000 
     57 H57       -49.0898  -45.7281   -1.1044 H         1 UNK         0.0000 
     58 H58       -47.4870  -46.4284   -1.0683 H         1 UNK         0.0000 
     59 H59       -47.7599  -44.8077   -3.0406 H         1 UNK         0.0000 
     60 H60       -46.4764  -44.2947   -1.9147 H         1 UNK         0.0000 
     61 H61       -42.0468  -33.0912   -1.0217 H         1 UNK         0.0000 
     62 H62       -43.0155  -34.0677   -2.1799 H         1 UNK         0.0000 
     63 H63       -44.0875  -32.0944   -0.6372 H         1 UNK         0.0000 
     64 H64       -44.6283  -32.4985   -2.2558 H         1 UNK         0.0000 
     65 H65       -44.0295  -30.0353   -2.4513 H         1 UNK         0.0000 
     66 H66       -42.6594  -30.2933   -1.4550 H         1 UNK         0.0000 
     67 H67       -43.0705  -31.2064   -4.2929 H         1 UNK         0.0000 
     68 H68       -41.6528  -30.3855   -3.5433 H         1 UNK         0.0000 
     69 H69       -49.2309  -43.2720   -1.8825 H         1 UNK         0.0000 
@<TRIPOS>BOND
     1    1    2 1    
     2    1   39 1    
     3    1   40 1    
     4    1   41 1    
     5    2    3 1    
     6    3    8 ar   
     7    3    4 ar   
     8    4    5 ar   
     9    4   42 1    
    10    5    6 ar   
    11    5   31 1    
    12    6    7 ar   
    13    6   43 1    
    14    7    8 ar   
    15    7   44 1    
    16    8    9 1    
    17    9   14 ar   
    18    9   10 ar   
    19   10   11 ar   
    20   10   45 1    
    21   11   12 ar   
    22   11   46 1    
    23   12   13 ar   
    24   13   17 ar   
    25   13   14 ar   
    26   14   15 ar   
    27   15   38 1    
    28   15   16 ar   
    29   16   17 ar   
    30   16   18 1    
    31   18   23 ar   
    32   18   19 ar   
    33   19   20 ar   
    34   19   47 1    
    35   20   21 ar   
    36   20   48 1    
    37   21   22 ar   
    38   21   24 1    
    39   22   23 ar   
    40   22   49 1    
    41   23   50 1    
    42   24   25 1    
    43   24   51 1    
    44   24   52 1    
    45   25   30 1    
    46   25   26 1    
    47   25   69 1    
    48   26   27 1    
    49   26   53 1    
    50   26   54 1    
    51   27   28 1    
    52   27   55 1    
    53   27   56 1    
    54   28   29 1    
    55   29   30 1    
    56   29   57 1    
    57   29   58 1    
    58   30   59 1    
    59   30   60 1    
    60   31   32 2    
    61   31   33 am   BACKBONE|DICT|INTERRES
    62   33   37 1    
    63   33   34 1    
    64   34   35 1    
    65   34   61 1    
    66   34   62 1    
    67   35   36 1    
    68   35   63 1    
    69   35   64 1    
    70   36   37 1    
    71   36   65 1    
    72   36   66 1    
    73   37   67 1    
    74   37   68 1    
@<TRIPOS>SUBSTRUCTURE
     1 UNK         1 GROUP             0       ****    0 ROOT    
