@<TRIPOS>MOLECULE
/home/yujie/leadopt/data/result/selection/CDK9/lig_31.sdf:1
64   68    1
SMALL
USER_CHARGES


@<TRIPOS>ATOM
      1 C1        -49.6640  -45.2740   -0.3321 C.3       1 UNK         0.0000 
      2 N2        -48.9222  -45.6010   -1.5536 N.am      1 UNK         0.0000 
      3 C3        -49.1557  -46.9723   -2.0215 C.3       1 UNK         0.0000 
      4 C4        -48.0295  -44.7802   -2.1693 C.2       1 UNK         0.0000 
      5 O5        -47.4939  -45.0909   -3.2355 O.2       1 UNK         0.0000 
      6 C6        -47.6746  -43.4177   -1.5236 C.3       1 UNK         0.0000 
      7 N7        -46.2286  -42.9680   -1.8909 N.4       1 UNK         0.0000 
      8 C8        -45.6928  -41.9980   -0.8095 C.3       1 UNK         0.0000 
      9 C9        -44.2279  -41.6484   -1.1192 C.3       1 UNK         0.0000 
     10 C10       -44.0784  -41.0094   -2.5169 C.3       1 UNK         0.0000 
     11 C11       -44.6743  -41.9569   -3.5846 C.3       1 UNK         0.0000 
     12 C12       -46.1457  -42.2974   -3.2865 C.3       1 UNK         0.0000 
     13 C13       -42.6498  -40.5780   -2.8054 C.ar      1 UNK         0.0000 
     14 C14       -42.0983  -39.3274   -3.0567 C.ar      1 UNK         0.0000 
     15 C15       -40.6724  -39.4765   -3.1823 C.ar      1 UNK         0.0000 
     16 C16       -39.5552  -38.6320   -3.4044 C.ar      1 UNK         0.0000 
     17 C17       -38.2982  -39.2536   -3.4568 C.ar      1 UNK         0.0000 
     18 C18       -38.1863  -40.6345   -3.3118 C.ar      1 UNK         0.0000 
     19 N19       -39.2322  -41.4742   -3.1146 N.ar      1 UNK         0.0000 
     20 C20       -40.4213  -40.8721   -3.0558 C.ar      1 UNK         0.0000 
     21 N21       -41.6229  -41.4930   -2.8256 N.pl3     1 UNK         0.0000 
     22 C22       -39.6532  -37.1623   -3.5813 C.ar      1 UNK         0.0000 
     23 C23       -38.7498  -36.4457   -4.4749 C.ar      1 UNK         0.0000 
     24 C24       -38.8177  -35.1019   -4.5806 C.ar      1 UNK         0.0000 
     25 C25       -39.7286  -34.2874   -3.7884 C.ar      1 UNK         0.0000 
     26 O26       -39.6292  -33.0608   -3.8618 O.2       1 UNK         0.0000 
     27 N27       -40.6197  -34.9937   -2.9959 N.pl3     1 UNK         0.0000 
     28 C28       -40.5315  -36.3768   -2.9131 C.ar      1 UNK         0.0000 
     29 C29       -41.5489  -34.1749   -2.1804 C.3       1 UNK         0.0000 
     30 C30       -42.5814  -33.3084   -2.9324 C.3       1 UNK         0.0000 
     31 C31       -43.5025  -33.5265   -1.7224 C.3       1 UNK         0.0000 
     32 C32       -42.7689  -34.8628   -1.5306 C.3       1 UNK         0.0000 
     33 H33       -41.7662  -42.4837   -2.6569 H         1 UNK         0.0000 
     34 H34       -49.2507  -45.8202    0.5172 H         1 UNK         0.0000 
     35 H35       -50.7097  -45.5676   -0.4392 H         1 UNK         0.0000 
     36 H36       -49.6681  -44.2125   -0.0872 H         1 UNK         0.0000 
     37 H37       -50.2191  -47.1431   -2.1842 H         1 UNK         0.0000 
     38 H38       -48.6401  -47.2016   -2.9545 H         1 UNK         0.0000 
     39 H39       -48.8092  -47.6878   -1.2761 H         1 UNK         0.0000 
     40 H40       -48.3448  -42.6182   -1.8402 H         1 UNK         0.0000 
     41 H41       -47.6986  -43.4838   -0.4360 H         1 UNK         0.0000 
     42 H42       -46.3425  -41.1196   -0.7927 H         1 UNK         0.0000 
     43 H43       -45.7813  -42.5112    0.1433 H         1 UNK         0.0000 
     44 H44       -43.8872  -40.9552   -0.3491 H         1 UNK         0.0000 
     45 H45       -43.6376  -42.5640   -1.0459 H         1 UNK         0.0000 
     46 H46       -44.7082  -40.1175   -2.5146 H         1 UNK         0.0000 
     47 H47       -44.1112  -42.8908   -3.6264 H         1 UNK         0.0000 
     48 H48       -44.6585  -41.4939   -4.5697 H         1 UNK         0.0000 
     49 H49       -46.5461  -42.9884   -4.0277 H         1 UNK         0.0000 
     50 H50       -46.7775  -41.4066   -3.2610 H         1 UNK         0.0000 
     51 H51       -42.6671  -38.4112   -3.1117 H         1 UNK         0.0000 
     52 H52       -37.3988  -38.6711   -3.5998 H         1 UNK         0.0000 
     53 H53       -37.2137  -41.0973   -3.3529 H         1 UNK         0.0000 
     54 H54       -38.0413  -36.9895   -5.0845 H         1 UNK         0.0000 
     55 H55       -38.1505  -34.5887   -5.2539 H         1 UNK         0.0000 
     56 H56       -41.2045  -36.7832   -2.1742 H         1 UNK         0.0000 
     57 H57       -40.9600  -33.6022   -1.4575 H         1 UNK         0.0000 
     58 H58       -42.2783  -32.2779   -3.1268 H         1 UNK         0.0000 
     59 H59       -42.9612  -33.7529   -3.8554 H         1 UNK         0.0000 
     60 H60       -43.3452  -32.8112   -0.9099 H         1 UNK         0.0000 
     61 H61       -44.5680  -33.5946   -1.9417 H         1 UNK         0.0000 
     62 H62       -43.2117  -35.6743   -2.1139 H         1 UNK         0.0000 
     63 H63       -42.6310  -35.1974   -0.5005 H         1 UNK         0.0000 
     64 H64       -45.6394  -43.7972   -1.8858 H         1 UNK         0.0000 
@<TRIPOS>BOND
     1    1    2 1    
     2    1   34 1    
     3    1   35 1    
     4    1   36 1    
     5    2    3 1    
     6    2    4 am   BACKBONE|DICT|INTERRES
     7    3   37 1    
     8    3   38 1    
     9    3   39 1    
    10    4    5 2    
    11    4    6 1    
    12    6    7 1    
    13    6   40 1    
    14    6   41 1    
    15    7   12 1    
    16    7    8 1    
    17    7   64 1    
    18    8    9 1    
    19    8   42 1    
    20    8   43 1    
    21    9   10 1    
    22    9   44 1    
    23    9   45 1    
    24   10   11 1    
    25   10   13 1    
    26   10   46 1    
    27   11   12 1    
    28   11   47 1    
    29   11   48 1    
    30   12   49 1    
    31   12   50 1    
    32   13   21 ar   
    33   13   14 ar   
    34   14   15 ar   
    35   14   51 1    
    36   15   20 ar   
    37   15   16 ar   
    38   16   17 ar   
    39   16   22 1    
    40   17   18 ar   
    41   17   52 1    
    42   18   19 ar   
    43   18   53 1    
    44   19   20 ar   
    45   20   21 ar   
    46   21   33 1    
    47   22   28 ar   
    48   22   23 ar   
    49   23   24 ar   
    50   23   54 1    
    51   24   25 ar   
    52   24   55 1    
    53   25   26 2    
    54   25   27 ar   
    55   27   28 ar   
    56   27   29 1    
    57   28   56 1    
    58   29   32 1    
    59   29   30 1    
    60   29   57 1    
    61   30   31 1    
    62   30   58 1    
    63   30   59 1    
    64   31   32 1    
    65   31   60 1    
    66   31   61 1    
    67   32   62 1    
    68   32   63 1    
@<TRIPOS>SUBSTRUCTURE
     1 UNK         1 GROUP             0       ****    0 ROOT    
