@<TRIPOS>MOLECULE
/home/yujie/leadopt/data/result/selection/HO1/lig_7c.sdf:1
27   28    1
SMALL
USER_CHARGES


@<TRIPOS>ATOM
      1 O1        -26.1855  -12.4181    6.6815 O.2       1 UNK         0.0000 
      2 C2        -25.3000  -11.5659    6.7059 C.2       1 UNK         0.0000 
      3 C3        -23.9531  -11.8767    7.3985 C.3       1 UNK         0.0000 
      4 N4        -23.7640  -13.2713    7.7888 N.pl3     1 UNK         0.0000 
      5 C5        -23.0621  -14.2419    7.0828 C.ar      1 UNK         0.0000 
      6 C6        -23.1320  -15.4378    7.7928 C.ar      1 UNK         0.0000 
      7 N7        -23.8824  -15.1915    8.9303 N.pl3     1 UNK         0.0000 
      8 C8        -24.2609  -13.8673    8.9330 C.ar      1 UNK         0.0000 
      9 N9        -25.5242  -10.3775    6.1067 N.am      1 UNK         0.0000 
     10 C10       -24.7150   -9.2315    6.0789 C.ar      1 UNK         0.0000 
     11 C11       -24.6627   -8.4973    4.8870 C.ar      1 UNK         0.0000 
     12 C12       -23.8741   -7.3473    4.8011 C.ar      1 UNK         0.0000 
     13 Br13      -23.7735   -6.3744    3.1675 Br        1 UNK         0.0000 
     14 C14       -23.1497   -6.9161    5.9115 C.ar      1 UNK         0.0000 
     15 C15       -23.2187   -7.6312    7.1063 C.ar      1 UNK         0.0000 
     16 C16       -24.0143   -8.7670    7.2008 C.ar      1 UNK         0.0000 
     17 H17       -23.8576  -11.2940    8.3102 H         1 UNK         0.0000 
     18 H18       -23.1315  -11.5879    6.7420 H         1 UNK         0.0000 
     19 H19       -22.5865  -13.9966    6.1435 H         1 UNK         0.0000 
     20 H20       -22.7298  -16.4215    7.5908 H         1 UNK         0.0000 
     21 H21       -24.8544  -13.3757    9.6921 H         1 UNK         0.0000 
     22 H22       -26.3495  -10.3396    5.5267 H         1 UNK         0.0000 
     23 H23       -25.2150   -8.8233    4.0168 H         1 UNK         0.0000 
     24 H24       -22.5444   -6.0231    5.8530 H         1 UNK         0.0000 
     25 H25       -22.6770   -7.2965    7.9781 H         1 UNK         0.0000 
     26 H26       -24.0862   -9.2479    8.1628 H         1 UNK         0.0000 
     27 H27       -24.1218  -15.8714    9.6417 H         1 UNK         0.0000 
@<TRIPOS>BOND
     1    1    2 2    
     2    2    3 1    
     3    2    9 am   BACKBONE|DICT|INTERRES
     4    3    4 1    
     5    3   17 1    
     6    3   18 1    
     7    4    8 ar   
     8    4    5 ar   
     9    5    6 ar   
    10    5   19 1    
    11    6    7 ar   
    12    6   20 1    
    13    7    8 ar   
    14    7   27 1    
    15    8   21 1    
    16    9   10 1    
    17    9   22 1    
    18   10   16 ar   
    19   10   11 ar   
    20   11   12 ar   
    21   11   23 1    
    22   12   13 1    
    23   12   14 ar   
    24   14   15 ar   
    25   14   24 1    
    26   15   16 ar   
    27   15   25 1    
    28   16   26 1    
@<TRIPOS>SUBSTRUCTURE
     1 UNK         1 GROUP             0       ****    0 ROOT    
