@<TRIPOS>MOLECULE
/home/yujie/leadopt/data/result/selection/HO1/lig_7d.sdf:1
27   28    1
SMALL
USER_CHARGES


@<TRIPOS>ATOM
      1 O1        -26.2323  -11.4119    5.9418 O.2       1 UNK         0.0000 
      2 C2        -25.4107  -10.8593    6.6747 C.2       1 UNK         0.0000 
      3 C3        -24.8764  -11.6125    7.8969 C.3       1 UNK         0.0000 
      4 N4        -24.1091  -12.7973    7.5448 N.pl3     1 UNK         0.0000 
      5 C5        -24.6199  -14.0478    7.2120 C.ar      1 UNK         0.0000 
      6 C6        -23.5531  -14.8976    6.9326 C.ar      1 UNK         0.0000 
      7 N7        -22.3960  -14.1568    7.0965 N.pl3     1 UNK         0.0000 
      8 C8        -22.7335  -12.8757    7.4724 C.ar      1 UNK         0.0000 
      9 N9        -24.9085   -9.6294    6.4522 N.am      1 UNK         0.0000 
     10 C10       -25.3431   -8.7670    5.4409 C.ar      1 UNK         0.0000 
     11 C11       -26.6332   -8.2418    5.4724 C.ar      1 UNK         0.0000 
     12 C12       -27.0137   -7.3253    4.5058 C.ar      1 UNK         0.0000 
     13 C13       -26.1155   -6.8984    3.5312 C.ar      1 UNK         0.0000 
     14 I14       -26.6622   -5.2946    2.3064 I         1 UNK         0.0000 
     15 C15       -24.8339   -7.4378    3.4829 C.ar      1 UNK         0.0000 
     16 C16       -24.4534   -8.3741    4.4417 C.ar      1 UNK         0.0000 
     17 H17       -25.7280  -11.9238    8.5034 H         1 UNK         0.0000 
     18 H18       -24.2675  -10.9726    8.5392 H         1 UNK         0.0000 
     19 H19       -25.6894  -14.2136    7.1960 H         1 UNK         0.0000 
     20 H20       -23.5149  -15.9397    6.6417 H         1 UNK         0.0000 
     21 H21       -22.0439  -12.0758    7.7061 H         1 UNK         0.0000 
     22 H22       -24.1195   -9.3213    7.0005 H         1 UNK         0.0000 
     23 H23       -27.3259   -8.5020    6.2577 H         1 UNK         0.0000 
     24 H24       -28.0020   -6.9065    4.5620 H         1 UNK         0.0000 
     25 H25       -24.1301   -7.1052    2.7344 H         1 UNK         0.0000 
     26 H26       -23.4630   -8.7825    4.4173 H         1 UNK         0.0000 
     27 H27       -21.4493  -14.5049    7.0049 H         1 UNK         0.0000 
@<TRIPOS>BOND
     1    1    2 2    
     2    2    3 1    
     3    2    9 am   BACKBONE|DICT|INTERRES
     4    3    4 1    
     5    3   17 1    
     6    3   18 1    
     7    4    8 ar   
     8    4    5 ar   
     9    5    6 ar   
    10    5   19 1    
    11    6    7 ar   
    12    6   20 1    
    13    7    8 ar   
    14    7   27 1    
    15    8   21 1    
    16    9   10 1    
    17    9   22 1    
    18   10   16 ar   
    19   10   11 ar   
    20   11   12 ar   
    21   11   23 1    
    22   12   13 ar   
    23   12   24 1    
    24   13   14 1    
    25   13   15 ar   
    26   15   16 ar   
    27   15   25 1    
    28   16   26 1    
@<TRIPOS>SUBSTRUCTURE
     1 UNK         1 GROUP             0       ****    0 ROOT    
