@<TRIPOS>MOLECULE
/home/yujie/leadopt/data/result/selection/HO1/lig_7e.sdf:1
29   30    1
SMALL
USER_CHARGES


@<TRIPOS>ATOM
      1 O1        -25.0862  -11.2988    5.9542 O.2       1 UNK         0.0000 
      2 C2        -24.3381  -10.6677    6.7063 C.2       1 UNK         0.0000 
      3 C3        -23.5623  -11.4619    7.7766 C.3       1 UNK         0.0000 
      4 N4        -23.4225  -12.8937    7.5352 N.pl3     1 UNK         0.0000 
      5 C5        -22.7399  -13.5118    6.5183 C.ar      1 UNK         0.0000 
      6 C6        -22.8506  -14.8715    6.7691 C.ar      1 UNK         0.0000 
      7 N7        -23.5318  -15.1145    7.8749 N.2       1 UNK         0.0000 
      8 C8        -23.8622  -13.9277    8.3266 C.ar      1 UNK         0.0000 
      9 N9        -24.1302   -9.3166    6.5922 N.am      1 UNK         0.0000 
     10 C10       -23.2328   -8.6229    7.5333 C.3       1 UNK         0.0000 
     11 C11       -24.6848   -8.5394    5.5334 C.ar      1 UNK         0.0000 
     12 C12       -26.0231   -8.6854    5.1368 C.ar      1 UNK         0.0000 
     13 C13       -26.5671   -7.8637    4.1554 C.ar      1 UNK         0.0000 
     14 C14       -25.7739   -6.8968    3.5466 C.ar      1 UNK         0.0000 
     15 I15       -26.6611   -5.4563    2.3064 I         1 UNK         0.0000 
     16 C16       -24.4281   -6.7735    3.8863 C.ar      1 UNK         0.0000 
     17 C17       -23.8893   -7.5819    4.8844 C.ar      1 UNK         0.0000 
     18 H18       -24.1058  -11.3321    8.7069 H         1 UNK         0.0000 
     19 H19       -22.5528  -11.0745    7.9064 H         1 UNK         0.0000 
     20 H20       -22.2655  -12.9431    5.7329 H         1 UNK         0.0000 
     21 H21       -22.4424  -15.6698    6.1666 H         1 UNK         0.0000 
     22 H22       -24.4144  -13.7187    9.2306 H         1 UNK         0.0000 
     23 H23       -23.3837   -7.5430    7.5056 H         1 UNK         0.0000 
     24 H24       -23.4156   -8.9290    8.5646 H         1 UNK         0.0000 
     25 H25       -22.1881   -8.8236    7.2929 H         1 UNK         0.0000 
     26 H26       -26.6625   -9.4080    5.6179 H         1 UNK         0.0000 
     27 H27       -27.6139   -7.9523    3.9062 H         1 UNK         0.0000 
     28 H28       -23.8210   -6.0108    3.4214 H         1 UNK         0.0000 
     29 H29       -22.8522   -7.4518    5.1550 H         1 UNK         0.0000 
@<TRIPOS>BOND
     1    1    2 2    
     2    2    3 1    
     3    2    9 am   BACKBONE|DICT|INTERRES
     4    3    4 1    
     5    3   18 1    
     6    3   19 1    
     7    4    8 ar   
     8    4    5 ar   
     9    5    6 ar   
    10    5   20 1    
    11    6    7 ar   
    12    6   21 1    
    13    7    8 ar   
    14    8   22 1    
    15    9   10 1    
    16    9   11 1    
    17   10   23 1    
    18   10   24 1    
    19   10   25 1    
    20   11   17 ar   
    21   11   12 ar   
    22   12   13 ar   
    23   12   26 1    
    24   13   14 ar   
    25   13   27 1    
    26   14   15 1    
    27   14   16 ar   
    28   16   17 ar   
    29   16   28 1    
    30   17   29 1    
@<TRIPOS>SUBSTRUCTURE
     1 UNK         1 GROUP             0       ****    0 ROOT    
