@<TRIPOS>MOLECULE
/home/yujie/leadopt/data/result/selection/HO1/lig_11b.sdf:1
45   47    1
SMALL
USER_CHARGES


@<TRIPOS>ATOM
      1 O1        -25.8031  -10.9620    9.2324 O.2       1 UNK         0.0000 
      2 C2        -25.9330  -10.1167    8.3449 C.2       1 UNK         0.0000 
      3 N3        -25.1262  -10.0783    7.2479 N.am      1 UNK         0.0000 
      4 C4        -25.5971   -9.6317    5.9208 C.3       1 UNK         0.0000 
      5 C5        -24.9270   -8.4217    5.2708 C.ar      1 UNK         0.0000 
      6 C6        -25.3126   -8.0977    3.9676 C.ar      1 UNK         0.0000 
      7 C7        -24.7798   -6.9790    3.3361 C.ar      1 UNK         0.0000 
      8 C8        -23.8624   -6.1791    4.0107 C.ar      1 UNK         0.0000 
      9 C9        -23.4624   -6.4976    5.3067 C.ar      1 UNK         0.0000 
     10 C10       -23.9854   -7.6247    5.9344 C.ar      1 UNK         0.0000 
     11 C11       -23.7995  -10.7111    7.2813 C.3       1 UNK         0.0000 
     12 C12       -23.7748  -12.1668    6.7842 C.3       1 UNK         0.0000 
     13 C13       -22.4179  -12.8349    7.0778 C.3       1 UNK         0.0000 
     14 N14       -22.3309  -14.1551    6.4708 N.pl3     1 UNK         0.0000 
     15 C15       -22.2878  -14.4665    5.1357 C.ar      1 UNK         0.0000 
     16 C16       -22.1942  -15.8494    5.0807 C.ar      1 UNK         0.0000 
     17 N17       -22.1755  -16.3905    6.2859 N.2       1 UNK         0.0000 
     18 C18       -22.2626  -15.3705    7.1060 C.ar      1 UNK         0.0000 
     19 C19       -27.0143   -9.0724    8.5117 C.ar      1 UNK         0.0000 
     20 C20       -26.8050   -7.7444    8.1135 C.ar      1 UNK         0.0000 
     21 C21       -27.8277   -6.8116    8.2143 C.ar      1 UNK         0.0000 
     22 C22       -29.0624   -7.2013    8.7063 C.ar      1 UNK         0.0000 
     23 C23       -29.2684   -8.4962    9.1790 C.ar      1 UNK         0.0000 
     24 C24       -28.2349   -9.4251    9.1063 C.ar      1 UNK         0.0000 
     25 H25       -26.6624   -9.4075    5.9522 H         1 UNK         0.0000 
     26 H26       -25.5021  -10.4732    5.2337 H         1 UNK         0.0000 
     27 H27       -26.0383   -8.7049    3.4443 H         1 UNK         0.0000 
     28 H28       -25.0856   -6.7287    2.3308 H         1 UNK         0.0000 
     29 H29       -23.4623   -5.3019    3.5244 H         1 UNK         0.0000 
     30 H30       -22.7513   -5.8707    5.8247 H         1 UNK         0.0000 
     31 H31       -23.6732   -7.8548    6.9428 H         1 UNK         0.0000 
     32 H32       -23.0805  -10.1217    6.7121 H         1 UNK         0.0000 
     33 H33       -23.4267  -10.6940    8.3062 H         1 UNK         0.0000 
     34 H34       -24.5674  -12.7395    7.2695 H         1 UNK         0.0000 
     35 H35       -23.9786  -12.1846    5.7129 H         1 UNK         0.0000 
     36 H36       -21.5862  -12.2362    6.7061 H         1 UNK         0.0000 
     37 H37       -22.2659  -12.9227    8.1550 H         1 UNK         0.0000 
     38 H38       -22.3293  -13.7010    4.3743 H         1 UNK         0.0000 
     39 H39       -22.1433  -16.4531    4.1856 H         1 UNK         0.0000 
     40 H40       -22.2712  -15.4142    8.1848 H         1 UNK         0.0000 
     41 H41       -25.8540   -7.4182    7.7265 H         1 UNK         0.0000 
     42 H42       -27.6755   -5.7894    7.9065 H         1 UNK         0.0000 
     43 H43       -29.8622   -6.4769    8.7063 H         1 UNK         0.0000 
     44 H44       -30.2294   -8.7858    9.5794 H         1 UNK         0.0000 
     45 H45       -28.4134  -10.4338    9.4543 H         1 UNK         0.0000 
@<TRIPOS>BOND
     1    1    2 2    
     2    2    3 am   BACKBONE|DICT|INTERRES
     3    2   19 1    
     4    3    4 1    
     5    3   11 1    
     6    4    5 1    
     7    4   25 1    
     8    4   26 1    
     9    5   10 ar   
    10    5    6 ar   
    11    6    7 ar   
    12    6   27 1    
    13    7    8 ar   
    14    7   28 1    
    15    8    9 ar   
    16    8   29 1    
    17    9   10 ar   
    18    9   30 1    
    19   10   31 1    
    20   11   12 1    
    21   11   32 1    
    22   11   33 1    
    23   12   13 1    
    24   12   34 1    
    25   12   35 1    
    26   13   14 1    
    27   13   36 1    
    28   13   37 1    
    29   14   18 ar   
    30   14   15 ar   
    31   15   16 ar   
    32   15   38 1    
    33   16   17 ar   
    34   16   39 1    
    35   17   18 ar   
    36   18   40 1    
    37   19   24 ar   
    38   19   20 ar   
    39   20   21 ar   
    40   20   41 1    
    41   21   22 ar   
    42   21   42 1    
    43   22   23 ar   
    44   22   43 1    
    45   23   24 ar   
    46   23   44 1    
    47   24   45 1    
@<TRIPOS>SUBSTRUCTURE
     1 UNK         1 GROUP             0       ****    0 ROOT    
