@<TRIPOS>MOLECULE
/home/yujie/leadopt/data/result/selection/HO1/lig_7i.sdf:1
43   45    1
SMALL
USER_CHARGES


@<TRIPOS>ATOM
      1 O1        -25.4888  -11.9275    6.4516 O.2       1 UNK         0.0000 
      2 C2        -24.5773  -11.3723    7.0688 C.2       1 UNK         0.0000 
      3 C3        -23.5667  -12.3124    7.7613 C.3       1 UNK         0.0000 
      4 N4        -24.1821  -13.1929    8.7502 N.pl3     1 UNK         0.0000 
      5 C5        -24.7759  -14.4282    8.5097 C.ar      1 UNK         0.0000 
      6 C6        -25.1956  -14.9621    9.7268 C.ar      1 UNK         0.0000 
      7 N7        -24.8559  -14.0449   10.7063 N.pl3     1 UNK         0.0000 
      8 C8        -24.2625  -12.9588   10.1097 C.ar      1 UNK         0.0000 
      9 N9        -24.4808  -10.0117    7.1433 N.am      1 UNK         0.0000 
     10 C10       -23.4414   -9.3003    7.9048 C.3       1 UNK         0.0000 
     11 C11       -25.5509   -9.1395    6.5752 C.3       1 UNK         0.0000 
     12 C12       -25.0386   -8.1555    5.5038 C.ar      1 UNK         0.0000 
     13 C13       -24.3259   -6.9965    5.8411 C.ar      1 UNK         0.0000 
     14 C14       -23.8622   -6.1418    4.8453 C.ar      1 UNK         0.0000 
     15 C15       -24.1242   -6.4319    3.5081 C.ar      1 UNK         0.0000 
     16 C16       -24.8500   -7.5682    3.1627 C.ar      1 UNK         0.0000 
     17 C17       -25.3015   -8.4276    4.1587 C.ar      1 UNK         0.0000 
     18 C18       -26.5309   -8.5659    7.6249 C.ar      1 UNK         0.0000 
     19 C19       -26.9343   -9.3617    8.7074 C.ar      1 UNK         0.0000 
     20 C20       -27.8620   -8.8859    9.6305 C.ar      1 UNK         0.0000 
     21 C21       -28.3751   -7.6004    9.4910 C.ar      1 UNK         0.0000 
     22 C22       -28.0094   -6.8063    8.4095 C.ar      1 UNK         0.0000 
     23 C23       -27.1057   -7.2970    7.4724 C.ar      1 UNK         0.0000 
     24 H24       -22.7272  -11.8246    8.2460 H         1 UNK         0.0000 
     25 H25       -23.1209  -12.9327    6.9842 H         1 UNK         0.0000 
     26 H26       -24.8422  -14.8112    7.5008 H         1 UNK         0.0000 
     27 H27       -25.6802  -15.8974    9.9792 H         1 UNK         0.0000 
     28 H28       -23.8635  -12.0968   10.6264 H         1 UNK         0.0000 
     29 H29       -22.5770   -9.8898    8.1880 H         1 UNK         0.0000 
     30 H30       -23.0146   -8.4891    7.3198 H         1 UNK         0.0000 
     31 H31       -23.8627   -8.8710    8.8167 H         1 UNK         0.0000 
     32 H32       -26.2391   -9.7774    6.0200 H         1 UNK         0.0000 
     33 H33       -24.1438   -6.7458    6.8755 H         1 UNK         0.0000 
     34 H34       -23.3167   -5.2495    5.1149 H         1 UNK         0.0000 
     35 H35       -23.7779   -5.7656    2.7316 H         1 UNK         0.0000 
     36 H36       -25.0683   -7.7836    2.1273 H         1 UNK         0.0000 
     37 H37       -25.8736   -9.2970    3.8771 H         1 UNK         0.0000 
     38 H38       -26.5547  -10.3657    8.8208 H         1 UNK         0.0000 
     39 H39       -28.1923   -9.5118   10.4455 H         1 UNK         0.0000 
     40 H40       -29.0755   -7.2212   10.2201 H         1 UNK         0.0000 
     41 H41       -28.4330   -5.8196    8.2875 H         1 UNK         0.0000 
     42 H42       -26.8730   -6.6846    6.6172 H         1 UNK         0.0000 
     43 H43       -24.9764  -14.1595   11.7086 H         1 UNK         0.0000 
@<TRIPOS>BOND
     1    1    2 2    
     2    2    3 1    
     3    2    9 am   BACKBONE|DICT|INTERRES
     4    3    4 1    
     5    3   24 1    
     6    3   25 1    
     7    4    8 ar   
     8    4    5 ar   
     9    5    6 ar   
    10    5   26 1    
    11    6    7 ar   
    12    6   27 1    
    13    7    8 ar   
    14    7   43 1    
    15    8   28 1    
    16    9   10 1    
    17    9   11 1    
    18   10   29 1    
    19   10   30 1    
    20   10   31 1    
    21   11   12 1    
    22   11   18 1    
    23   11   32 1    
    24   12   17 ar   
    25   12   13 ar   
    26   13   14 ar   
    27   13   33 1    
    28   14   15 ar   
    29   14   34 1    
    30   15   16 ar   
    31   15   35 1    
    32   16   17 ar   
    33   16   36 1    
    34   17   37 1    
    35   18   23 ar   
    36   18   19 ar   
    37   19   20 ar   
    38   19   38 1    
    39   20   21 ar   
    40   20   39 1    
    41   21   22 ar   
    42   21   40 1    
    43   22   23 ar   
    44   22   41 1    
    45   23   42 1    
@<TRIPOS>SUBSTRUCTURE
     1 UNK         1 GROUP             0       ****    0 ROOT    
