/home/yujie/leadopt/data/result/selection/HO1/lig_7p.sdf:1
                    3D
 Schrodinger Suite 2020-3.
 57 60  0  0  1  0            999 V2000
  -25.8622  -13.1123   10.1500 O   0  0  0  0  0  0
  -26.0263  -13.1523    8.9287 C   0  0  0  0  0  0
  -26.0689  -14.5414    8.2612 C   0  0  0  0  0  0
  -24.9991  -15.4209    8.7133 N   0  0  0  0  0  0
  -23.8196  -15.6960    8.0306 C   0  0  0  0  0  0
  -23.0576  -16.5607    8.8093 C   0  0  0  0  0  0
  -23.7697  -16.7990    9.9716 N   0  3  0  0  0  0
  -24.9520  -16.0969    9.9168 C   0  0  0  0  0  0
  -26.1777  -12.0267    8.1806 N   0  0  0  0  0  0
  -26.5319  -12.0692    6.7531 C   0  0  0  0  0  0
  -26.0968  -10.6820    8.8108 C   0  0  2  0  0  0
  -27.4352  -10.0795    9.2938 C   0  0  0  0  0  0
  -27.4964   -8.7701    9.8033 C   0  0  0  0  0  0
  -28.7124   -8.1108    9.9086 C   0  0  0  0  0  0
  -29.8627   -8.7765    9.5065 C   0  0  0  0  0  0
  -29.8269  -10.0966    9.1214 C   0  0  0  0  0  0
  -28.6216  -10.7763    9.1063 C   0  0  0  0  0  0
  -25.2471   -9.7011    7.9903 C   0  0  0  0  0  0
  -25.7837   -8.5267    7.4518 C   0  0  0  0  0  0
  -24.9434   -7.5062    7.0586 C   0  0  0  0  0  0
  -23.5574   -7.6985    7.0884 C   0  0  0  0  0  0
  -22.6627   -6.8068    6.5551 O   0  0  0  0  0  0
  -23.1311   -5.8380    5.6208 C   0  0  0  0  0  0
  -23.7659   -6.4504    4.3715 C   0  0  0  0  0  0
  -23.7819   -7.8323    4.2184 C   0  0  0  0  0  0
  -24.7683   -8.4332    3.4818 C   0  0  0  0  0  0
  -25.6398   -7.6390    2.7687 C   0  0  0  0  0  0
  -27.0625   -8.4968    1.9063 Br  0  0  0  0  0  0
  -25.4886   -6.2559    2.7096 C   0  0  0  0  0  0
  -24.5087   -5.6586    3.4969 C   0  0  0  0  0  0
  -23.0265   -8.9135    7.4972 C   0  0  0  0  0  0
  -23.8773   -9.9257    7.9063 C   0  0  0  0  0  0
  -26.0262  -14.5017    7.1745 H   0  0  0  0  0  0
  -27.0205  -15.0113    8.5122 H   0  0  0  0  0  0
  -23.6307  -15.2532    7.0621 H   0  0  0  0  0  0
  -22.0872  -17.0114    8.6478 H   0  0  0  0  0  0
  -25.7108  -16.0652   10.6877 H   0  0  0  0  0  0
  -25.7405  -12.5448    6.1727 H   0  0  0  0  0  0
  -27.4615  -12.6173    6.5919 H   0  0  0  0  0  0
  -26.6622  -11.0709    6.3363 H   0  0  0  0  0  0
  -25.5317  -10.7958    9.7370 H   0  0  0  0  0  0
  -26.5991   -8.1949    9.9619 H   0  0  0  0  0  0
  -28.7548   -7.0776   10.2201 H   0  0  0  0  0  0
  -30.8196   -8.2961    9.4775 H   0  0  0  0  0  0
  -30.7355  -10.5915    8.8257 H   0  0  0  0  0  0
  -28.6291  -11.7973    8.7596 H   0  0  0  0  0  0
  -26.8481   -8.3519    7.4045 H   0  0  0  0  0  0
  -25.3838   -6.5913    6.6962 H   0  0  0  0  0  0
  -23.8084   -5.1292    6.1008 H   0  0  0  0  0  0
  -22.2625   -5.2968    5.3651 H   0  0  0  0  0  0
  -23.1532   -8.4752    4.8051 H   0  0  0  0  0  0
  -24.8688   -9.5058    3.5051 H   0  0  0  0  0  0
  -26.1726   -5.6529    2.1310 H   0  0  0  0  0  0
  -24.4677   -4.5804    3.5587 H   0  0  0  0  0  0
  -21.9594   -9.0755    7.4848 H   0  0  0  0  0  0
  -23.4611  -10.8472    8.2873 H   0  0  0  0  0  0
  -23.4692  -17.3835   10.7422 H   0  0  0  0  0  0
  1  2  2  0  0  0
  2  3  1  0  0  0
  2  9  1  0  0  0
  3  4  1  0  0  0
  3 33  1  0  0  0
  3 34  1  0  0  0
  4  8  1  0  0  0
  4  5  1  0  0  0
  5  6  2  0  0  0
  5 35  1  0  0  0
  6  7  1  0  0  0
  6 36  1  0  0  0
  7  8  2  0  0  0
  7 57  1  0  0  0
  8 37  1  0  0  0
  9 10  1  0  0  0
  9 11  1  0  0  0
 10 38  1  0  0  0
 10 39  1  0  0  0
 10 40  1  0  0  0
 11 12  1  0  0  0
 11 18  1  0  0  0
 11 41  1  0  0  0
 12 17  1  0  0  0
 12 13  2  0  0  0
 13 14  1  0  0  0
 13 42  1  0  0  0
 14 15  2  0  0  0
 14 43  1  0  0  0
 15 16  1  0  0  0
 15 44  1  0  0  0
 16 17  2  0  0  0
 16 45  1  0  0  0
 17 46  1  0  0  0
 18 32  1  0  0  0
 18 19  2  0  0  0
 19 20  1  0  0  0
 19 47  1  0  0  0
 20 21  2  0  0  0
 20 48  1  0  0  0
 21 22  1  0  0  0
 21 31  1  0  0  0
 22 23  1  0  0  0
 23 24  1  0  0  0
 23 49  1  0  0  0
 23 50  1  0  0  0
 24 30  1  0  0  0
 24 25  2  0  0  0
 25 26  1  0  0  0
 25 51  1  0  0  0
 26 27  2  0  0  0
 26 52  1  0  0  0
 27 28  1  0  0  0
 27 29  1  0  0  0
 29 30  2  0  0  0
 29 53  1  0  0  0
 30 54  1  0  0  0
 31 32  2  0  0  0
 31 55  1  0  0  0
 32 56  1  0  0  0
M  CHG  1   7   1
M  END
> <s_m_source_file>
/home/yujie/leadopt/data/result/selection/HO1/lig_7p.sdf

> <i_m_source_file_index>
1

> <i_lp_mmshare_version>
51139

> <i_f3d_flags>
0

> <s_epik_input>
W2NIXTFuW2NIXVtjSF1uMVtDSDJdQyg9TylOKFtDSDNdKVtDQEhdKGMyW2NIXVtjSF1bY0hdW2NIXVtjSF0yKWMzW2NIXVtjSF1jKFtjSF1bY0hdMylPW0NIMl1jNFtjSF1bY0hdYyhCcilbY0hdW2NIXTQ=

> <s_epik_cmdline>
J2VwaWtfcHl0aG9uJywgJy1waHQnLCAnMi4wJywgJy1waCcsICc3LjAnLCAnLXRuJywgJzgnLCAnLW1hJywgJzIwMCcsICctaW1hZScsICc8aW5maWxlLm1hZT4nLCAnLW9tYWUnLCAnPG91dGZpbGUubWFlPic=

> <r_lp_tautomer_probability>
1

> <r_epik_Ionization_Penalty>
  0.6221

> <r_epik_Ionization_Penalty_Charging>
  0.0000

> <r_epik_Ionization_Penalty_Neutral>
  0.6221

> <r_epik_State_Penalty>
  0.6382

> <r_epik_Charging_Adjusted_Penalty>
0.638167

> <i_epik_Tot_Q>
1

> <i_epik_Tot_abs_Q>
1

> <s_lp_Force_Field>
OPLS3e

> <r_lp_Energy>
55.5891

> <b_lp_Chiralities_Consistent>
1

> <s_lp_Variant>
/home/yujie/leadopt/data/result/selection/HO1/lig_7p.sdf:1-2

> <s_i_glide_gridfile>
glide-grid_HO1

> <i_i_glide_lignum>
2

> <i_i_glide_rotatable_bonds>
9

> <r_i_docking_score>
-4.47613152418218

> <r_i_glide_ligand_efficiency>
-0.139879110130693

> <r_i_glide_ligand_efficiency_sa>
-0.444088492626645

> <r_i_glide_ligand_efficiency_ln>
-1.00232786300147

> <r_i_glide_gscore>
-5.11429852418218

> <r_i_glide_lipo>
-3.77273996025683

> <r_i_glide_hbond>
0

> <r_i_glide_metal>
-0

> <r_i_glide_rewards>
-1.57318923096093

> <r_i_glide_evdw>
-10.7954168319702

> <r_i_glide_ecoul>
0.646441876888275

> <r_i_glide_erotb>
0.674435227100851

> <r_i_glide_esite>
0

> <r_i_glide_emodel>
-21.2044404468768

> <r_i_glide_energy>
-10.1489749550819

> <r_i_glide_einternal>
9.99876594543457

> <i_i_glide_confnum>
189

> <i_i_glide_posenum>
98

> <r_i_glide_eff_state_penalty>
0.638167

$$$$
