@<TRIPOS>MOLECULE
/home/yujie/leadopt/data/result/selection/HO1/lig_7h.sdf:1
43   45    1
SMALL
USER_CHARGES


@<TRIPOS>ATOM
      1 O1        -25.0787  -13.1742    8.4330 O.2       1 UNK         0.0000 
      2 C2        -25.1161  -12.4227    7.4559 C.2       1 UNK         0.0000 
      3 C3        -24.5252  -12.9203    6.1167 C.3       1 UNK         0.0000 
      4 N4        -23.7071  -14.1300    6.1891 N.pl3     1 UNK         0.0000 
      5 C5        -23.8254  -15.2540    5.3785 C.ar      1 UNK         0.0000 
      6 C6        -22.8186  -16.1529    5.7203 C.ar      1 UNK         0.0000 
      7 N7        -22.0882  -15.5735    6.7425 N.pl3     1 UNK         0.0000 
      8 C8        -22.6205  -14.3349    7.0191 C.ar      1 UNK         0.0000 
      9 N9        -25.6368  -11.1669    7.5253 N.am      1 UNK         0.0000 
     10 C10       -25.8912  -10.5704    8.8593 C.3       1 UNK         0.0000 
     11 C11       -26.9138   -9.4410    8.9275 C.ar      1 UNK         0.0000 
     12 C12       -28.2137   -9.6968    9.3662 C.ar      1 UNK         0.0000 
     13 C13       -29.1390   -8.6587    9.4339 C.ar      1 UNK         0.0000 
     14 C14       -28.7583   -7.3724    9.0536 C.ar      1 UNK         0.0000 
     15 C15       -27.4634   -7.1069    8.6322 C.ar      1 UNK         0.0000 
     16 C16       -26.5320   -8.1358    8.6032 C.ar      1 UNK         0.0000 
     17 C17       -25.6366  -10.2518    6.3611 C.3       1 UNK         0.0000 
     18 C18       -24.5244   -9.2070    6.3063 C.ar      1 UNK         0.0000 
     19 C19       -24.7161   -8.0930    5.4845 C.ar      1 UNK         0.0000 
     20 C20       -23.7847   -7.0600    5.4807 C.ar      1 UNK         0.0000 
     21 C21       -22.6637   -7.1445    6.3012 C.ar      1 UNK         0.0000 
     22 C22       -22.4519   -8.2572    7.1105 C.ar      1 UNK         0.0000 
     23 C23       -23.3779   -9.2939    7.1075 C.ar      1 UNK         0.0000 
     24 H24       -23.8931  -12.1499    5.6788 H         1 UNK         0.0000 
     25 H25       -25.3525  -13.1064    5.4336 H         1 UNK         0.0000 
     26 H26       -24.6057  -15.3120    4.6315 H         1 UNK         0.0000 
     27 H27       -22.5649  -17.1321    5.3353 H         1 UNK         0.0000 
     28 H28       -22.2622  -13.6448    7.7730 H         1 UNK         0.0000 
     29 H29       -26.2027  -11.3451    9.5630 H         1 UNK         0.0000 
     30 H30       -24.9425  -10.2036    9.2550 H         1 UNK         0.0000 
     31 H31       -28.5136  -10.6972    9.6428 H         1 UNK         0.0000 
     32 H32       -30.1493   -8.8557    9.7630 H         1 UNK         0.0000 
     33 H33       -29.4620   -6.5578    9.0849 H         1 UNK         0.0000 
     34 H34       -27.1772   -6.1057    8.3453 H         1 UNK         0.0000 
     35 H35       -25.5174   -7.9080    8.3180 H         1 UNK         0.0000 
     36 H36       -25.6457  -10.7903    5.4135 H         1 UNK         0.0000 
     37 H37       -26.5822   -9.7110    6.3682 H         1 UNK         0.0000 
     38 H38       -25.6001   -8.0125    4.8679 H         1 UNK         0.0000 
     39 H39       -23.9375   -6.1915    4.8568 H         1 UNK         0.0000 
     40 H40       -21.9493   -6.3351    6.3060 H         1 UNK         0.0000 
     41 H41       -21.5800   -8.3142    7.7461 H         1 UNK         0.0000 
     42 H42       -23.2061  -10.1391    7.7584 H         1 UNK         0.0000 
     43 H43       -21.2941  -15.9867    7.2143 H         1 UNK         0.0000 
@<TRIPOS>BOND
     1    1    2 2    
     2    2    3 1    
     3    2    9 am   BACKBONE|DICT|INTERRES
     4    3    4 1    
     5    3   24 1    
     6    3   25 1    
     7    4    8 ar   
     8    4    5 ar   
     9    5    6 ar   
    10    5   26 1    
    11    6    7 ar   
    12    6   27 1    
    13    7    8 ar   
    14    7   43 1    
    15    8   28 1    
    16    9   10 1    
    17    9   17 1    
    18   10   11 1    
    19   10   29 1    
    20   10   30 1    
    21   11   16 ar   
    22   11   12 ar   
    23   12   13 ar   
    24   12   31 1    
    25   13   14 ar   
    26   13   32 1    
    27   14   15 ar   
    28   14   33 1    
    29   15   16 ar   
    30   15   34 1    
    31   16   35 1    
    32   17   18 1    
    33   17   36 1    
    34   17   37 1    
    35   18   23 ar   
    36   18   19 ar   
    37   19   20 ar   
    38   19   38 1    
    39   20   21 ar   
    40   20   39 1    
    41   21   22 ar   
    42   21   40 1    
    43   22   23 ar   
    44   22   41 1    
    45   23   42 1    
@<TRIPOS>SUBSTRUCTURE
     1 UNK         1 GROUP             0       ****    0 ROOT    
