@<TRIPOS>MOLECULE
/home/yujie/leadopt/data/result/selection/HO1/lig_11a.sdf:1
39   40    1
SMALL
USER_CHARGES


@<TRIPOS>ATOM
      1 C1        -27.4624   -7.8843    4.6520 C.3       1 UNK         0.0000 
      2 C2        -26.2934   -7.7391    3.6955 C.2       1 UNK         0.0000 
      3 N3        -25.1981   -8.5140    3.8825 N.am      1 UNK         0.0000 
      4 C4        -23.9088   -7.9997    3.3787 C.3       1 UNK         0.0000 
      5 C5        -23.5447   -6.7042    4.0831 C.ar      1 UNK         0.0000 
      6 C6        -23.8720   -5.4734    3.5063 C.ar      1 UNK         0.0000 
      7 C7        -23.8625   -4.3234    4.2922 C.ar      1 UNK         0.0000 
      8 C8        -23.4625   -4.3907    5.6112 C.ar      1 UNK         0.0000 
      9 C9        -23.0415   -5.5983    6.1274 C.ar      1 UNK         0.0000 
     10 C10       -23.0625   -6.7571    5.3814 C.ar      1 UNK         0.0000 
     11 C11       -25.2244   -9.7188    4.7417 C.3       1 UNK         0.0000 
     12 C12       -24.8381   -9.5072    6.2219 C.3       1 UNK         0.0000 
     13 C13       -25.2047  -10.6768    7.1598 C.3       1 UNK         0.0000 
     14 N14       -24.3477  -11.8360    6.9407 N.pl3     1 UNK         0.0000 
     15 C15       -24.5870  -12.8999    6.0786 C.ar      1 UNK         0.0000 
     16 C16       -23.5235  -13.7938    6.1797 C.ar      1 UNK         0.0000 
     17 N17       -22.6384  -13.2684    7.1063 N.pl3     1 UNK         0.0000 
     18 C18       -23.1362  -12.0696    7.5617 C.ar      1 UNK         0.0000 
     19 O19       -26.3524   -6.8613    2.8358 O.2       1 UNK         0.0000 
     20 H20       -27.8328   -8.8986    4.7063 H         1 UNK         0.0000 
     21 H21       -27.1935   -7.5373    5.6491 H         1 UNK         0.0000 
     22 H22       -28.2999   -7.2968    4.3063 H         1 UNK         0.0000 
     23 H23       -23.9830   -7.8033    2.3071 H         1 UNK         0.0000 
     24 H24       -23.1083   -8.7182    3.5063 H         1 UNK         0.0000 
     25 H25       -24.2511   -5.4214    2.4957 H         1 UNK         0.0000 
     26 H26       -24.2022   -3.3750    3.9063 H         1 UNK         0.0000 
     27 H27       -23.4476   -3.5000    6.2226 H         1 UNK         0.0000 
     28 H28       -22.6625   -5.6239    7.1064 H         1 UNK         0.0000 
     29 H29       -22.7247   -7.6760    5.8246 H         1 UNK         0.0000 
     30 H30       -26.2296  -10.1349    4.7305 H         1 UNK         0.0000 
     31 H31       -24.6625  -10.5326    4.2995 H         1 UNK         0.0000 
     32 H32       -23.7653   -9.3597    6.3017 H         1 UNK         0.0000 
     33 H33       -25.3039   -8.5956    6.5976 H         1 UNK         0.0000 
     34 H34       -25.1001  -10.3720    8.2031 H         1 UNK         0.0000 
     35 H35       -26.2463  -10.9802    7.0396 H         1 UNK         0.0000 
     36 H36       -25.4917  -12.9318    5.4879 H         1 UNK         0.0000 
     37 H37       -23.3304  -14.7426    5.6958 H         1 UNK         0.0000 
     38 H38       -22.6752  -11.4320    8.3063 H         1 UNK         0.0000 
     39 H39       -21.7749  -13.6976    7.4241 H         1 UNK         0.0000 
@<TRIPOS>BOND
     1    1    2 1    
     2    1   20 1    
     3    1   21 1    
     4    1   22 1    
     5    2    3 am   BACKBONE|DICT|INTERRES
     6    2   19 2    
     7    3    4 1    
     8    3   11 1    
     9    4    5 1    
    10    4   23 1    
    11    4   24 1    
    12    5   10 ar   
    13    5    6 ar   
    14    6    7 ar   
    15    6   25 1    
    16    7    8 ar   
    17    7   26 1    
    18    8    9 ar   
    19    8   27 1    
    20    9   10 ar   
    21    9   28 1    
    22   10   29 1    
    23   11   12 1    
    24   11   30 1    
    25   11   31 1    
    26   12   13 1    
    27   12   32 1    
    28   12   33 1    
    29   13   14 1    
    30   13   34 1    
    31   13   35 1    
    32   14   18 ar   
    33   14   15 ar   
    34   15   16 ar   
    35   15   36 1    
    36   16   17 ar   
    37   16   37 1    
    38   17   18 ar   
    39   17   39 1    
    40   18   38 1    
@<TRIPOS>SUBSTRUCTURE
     1 UNK         1 GROUP             0       ****    0 ROOT    
