@<TRIPOS>MOLECULE
/home/yujie/leadopt/data/result/selection/HO1/lig_7f.sdf:1
30   31    1
SMALL
USER_CHARGES


@<TRIPOS>ATOM
      1 O1        -26.5457  -11.6968    7.1240 O.2       1 UNK         0.0000 
      2 C2        -25.7404  -11.2706    6.2986 C.2       1 UNK         0.0000 
      3 C3        -24.3480  -11.9150    6.1754 C.3       1 UNK         0.0000 
      4 N4        -24.1122  -12.9772    7.1549 N.pl3     1 UNK         0.0000 
      5 C5        -24.1585  -14.3470    6.9161 C.ar      1 UNK         0.0000 
      6 C6        -23.9975  -15.0121    8.1291 C.ar      1 UNK         0.0000 
      7 N7        -23.8626  -14.0414    9.1063 N.pl3     1 UNK         0.0000 
      8 C8        -23.9082  -12.8017    8.5117 C.ar      1 UNK         0.0000 
      9 N9        -26.0944  -10.2445    5.5072 N.am      1 UNK         0.0000 
     10 C10       -25.3628   -9.5583    4.4475 C.3       1 UNK         0.0000 
     11 C11       -24.6281   -8.2954    4.8612 C.ar      1 UNK         0.0000 
     12 C12       -24.4964   -7.2557    3.9350 C.ar      1 UNK         0.0000 
     13 C13       -23.8625   -6.0737    4.3038 C.ar      1 UNK         0.0000 
     14 C14       -23.3591   -5.9381    5.5957 C.ar      1 UNK         0.0000 
     15 C15       -23.4642   -6.9817    6.5103 C.ar      1 UNK         0.0000 
     16 C16       -24.1142   -8.1511    6.1524 C.ar      1 UNK         0.0000 
     17 H17       -23.5766  -11.1575    6.3081 H         1 UNK         0.0000 
     18 H18       -24.2341  -12.3296    5.1738 H         1 UNK         0.0000 
     19 H19       -24.3335  -14.7225    5.9172 H         1 UNK         0.0000 
     20 H20       -24.0027  -16.0642    8.3835 H         1 UNK         0.0000 
     21 H21       -23.8625  -11.8507    9.0289 H         1 UNK         0.0000 
     22 H22       -27.0191   -9.8770    5.6718 H         1 UNK         0.0000 
     23 H23       -24.6625  -10.2153    3.9447 H         1 UNK         0.0000 
     24 H24       -26.1081   -9.2823    3.7003 H         1 UNK         0.0000 
     25 H25       -24.8914   -7.3546    2.9333 H         1 UNK         0.0000 
     26 H26       -23.7704   -5.2625    3.5962 H         1 UNK         0.0000 
     27 H27       -22.8702   -5.0205    5.8906 H         1 UNK         0.0000 
     28 H28       -23.0625   -6.8968    7.5063 H         1 UNK         0.0000 
     29 H29       -24.2063   -8.9360    6.8873 H         1 UNK         0.0000 
     30 H30       -23.7755  -14.2069   10.1015 H         1 UNK         0.0000 
@<TRIPOS>BOND
     1    1    2 2    
     2    2    3 1    
     3    2    9 am   BACKBONE|DICT|INTERRES
     4    3    4 1    
     5    3   17 1    
     6    3   18 1    
     7    4    8 ar   
     8    4    5 ar   
     9    5    6 ar   
    10    5   19 1    
    11    6    7 ar   
    12    6   20 1    
    13    7    8 ar   
    14    7   30 1    
    15    8   21 1    
    16    9   10 1    
    17    9   22 1    
    18   10   11 1    
    19   10   23 1    
    20   10   24 1    
    21   11   16 ar   
    22   11   12 ar   
    23   12   13 ar   
    24   12   25 1    
    25   13   14 ar   
    26   13   26 1    
    27   14   15 ar   
    28   14   27 1    
    29   15   16 ar   
    30   15   28 1    
    31   16   29 1    
@<TRIPOS>SUBSTRUCTURE
     1 UNK         1 GROUP             0       ****    0 ROOT    
