@<TRIPOS>MOLECULE
/home/yujie/leadopt/data/result/selection/HO1/lig_7o.sdf:1
57   60    1
SMALL
USER_CHARGES


@<TRIPOS>ATOM
      1 O1        -24.6637  -13.0235    5.1455 O.2       1 UNK         0.0000 
      2 C2        -23.8191  -12.5428    5.9062 C.2       1 UNK         0.0000 
      3 C3        -22.6558  -13.4464    6.3812 C.3       1 UNK         0.0000 
      4 N4        -22.4981  -14.7072    5.6558 N.pl3     1 UNK         0.0000 
      5 C5        -22.4864  -15.9809    6.2128 C.ar      1 UNK         0.0000 
      6 C6        -22.2928  -16.9096    5.1920 C.ar      1 UNK         0.0000 
      7 N7        -22.1802  -16.1952    4.0118 N.pl3     1 UNK         0.0000 
      8 C8        -22.2921  -14.8525    4.2949 C.ar      1 UNK         0.0000 
      9 N9        -23.8624  -11.2477    6.3168 N.am      1 UNK         0.0000 
     10 C10       -22.8750  -10.7028    7.2730 C.3       1 UNK         0.0000 
     11 C11       -24.9750  -10.3323    5.9058 C.3       1 UNK         0.0000 
     12 C12       -24.6607   -8.9996    5.1537 C.ar      1 UNK         0.0000 
     13 C13       -25.4497   -8.6541    4.0484 C.ar      1 UNK         0.0000 
     14 C14       -25.2343   -7.4685    3.3494 C.ar      1 UNK         0.0000 
     15 C15       -24.2375   -6.5951    3.7679 C.ar      1 UNK         0.0000 
     16 C16       -23.4660   -6.8963    4.8863 C.ar      1 UNK         0.0000 
     17 C17       -23.6722   -8.0926    5.5693 C.ar      1 UNK         0.0000 
     18 C18       -25.8192  -10.1266    7.1420 C.ar      1 UNK         0.0000 
     19 C19       -26.4579  -11.2303    7.7204 C.ar      1 UNK         0.0000 
     20 C20       -27.1455  -11.0719    8.9094 C.ar      1 UNK         0.0000 
     21 C21       -27.1750   -9.8186    9.5089 C.ar      1 UNK         0.0000 
     22 O22       -27.8569   -9.6969   10.7003 O.3       1 UNK         0.0000 
     23 C23       -28.2606   -8.4258   11.2260 C.3       1 UNK         0.0000 
     24 C24       -28.9744   -7.7248   10.1353 C.ar      1 UNK         0.0000 
     25 C25       -28.5827   -6.4431    9.7630 C.ar      1 UNK         0.0000 
     26 C26       -29.0756   -5.9243    8.5838 C.ar      1 UNK         0.0000 
     27 C27       -30.0588   -6.6427    7.9064 C.ar      1 UNK         0.0000 
     28 C28       -30.4523   -7.9205    8.3047 C.ar      1 UNK         0.0000 
     29 C29       -29.8633   -8.4969    9.4004 C.ar      1 UNK         0.0000 
     30 C30       -26.5047   -8.7388    8.9450 C.ar      1 UNK         0.0000 
     31 C31       -25.8746   -8.8722    7.7436 C.ar      1 UNK         0.0000 
     32 H32       -22.8170  -13.6744    7.4361 H         1 UNK         0.0000 
     33 H33       -21.7139  -12.9057    6.3062 H         1 UNK         0.0000 
     34 H34       -22.6229  -16.1116    7.2778 H         1 UNK         0.0000 
     35 H35       -22.2373  -17.9907    5.1962 H         1 UNK         0.0000 
     36 H36       -22.2655  -14.0482    3.5733 H         1 UNK         0.0000 
     37 H37       -22.3880  -11.4604    7.8876 H         1 UNK         0.0000 
     38 H38       -22.0952  -10.1549    6.7482 H         1 UNK         0.0000 
     39 H39       -23.3470  -10.0224    7.9821 H         1 UNK         0.0000 
     40 H40       -25.6311  -10.8783    5.2260 H         1 UNK         0.0000 
     41 H41       -26.2462   -9.2970    3.7227 H         1 UNK         0.0000 
     42 H42       -25.8449   -7.2319    2.4920 H         1 UNK         0.0000 
     43 H43       -24.0751   -5.6705    3.2363 H         1 UNK         0.0000 
     44 H44       -22.7120   -6.2011    5.2253 H         1 UNK         0.0000 
     45 H45       -23.0723   -8.2783    6.4465 H         1 UNK         0.0000 
     46 H46       -26.4105  -12.2049    7.2573 H         1 UNK         0.0000 
     47 H47       -27.6464  -11.9080    9.3733 H         1 UNK         0.0000 
     48 H48       -28.9461   -8.5369   12.0664 H         1 UNK         0.0000 
     49 H49       -27.4099   -7.8556   11.5869 H         1 UNK         0.0000 
     50 H50       -27.8526   -5.8892   10.3424 H         1 UNK         0.0000 
     51 H51       -28.7555   -4.9365    8.2707 H         1 UNK         0.0000 
     52 H52       -30.5397   -6.2079    7.0446 H         1 UNK         0.0000 
     53 H53       -31.2392   -8.4596    7.8064 H         1 UNK         0.0000 
     54 H54       -30.1384   -9.5011    9.6975 H         1 UNK         0.0000 
     55 H55       -26.4635   -7.7817    9.4283 H         1 UNK         0.0000 
     56 H56       -25.3986   -7.9936    7.3476 H         1 UNK         0.0000 
     57 H57       -22.0514  -16.5926    3.0883 H         1 UNK         0.0000 
@<TRIPOS>BOND
     1    1    2 2    
     2    2    3 1    
     3    2    9 am   BACKBONE|DICT|INTERRES
     4    3    4 1    
     5    3   32 1    
     6    3   33 1    
     7    4    8 ar   
     8    4    5 ar   
     9    5    6 ar   
    10    5   34 1    
    11    6    7 ar   
    12    6   35 1    
    13    7    8 ar   
    14    7   57 1    
    15    8   36 1    
    16    9   10 1    
    17    9   11 1    
    18   10   37 1    
    19   10   38 1    
    20   10   39 1    
    21   11   12 1    
    22   11   18 1    
    23   11   40 1    
    24   12   17 ar   
    25   12   13 ar   
    26   13   14 ar   
    27   13   41 1    
    28   14   15 ar   
    29   14   42 1    
    30   15   16 ar   
    31   15   43 1    
    32   16   17 ar   
    33   16   44 1    
    34   17   45 1    
    35   18   31 ar   
    36   18   19 ar   
    37   19   20 ar   
    38   19   46 1    
    39   20   21 ar   
    40   20   47 1    
    41   21   22 1    
    42   21   30 ar   
    43   22   23 1    
    44   23   24 1    
    45   23   48 1    
    46   23   49 1    
    47   24   29 ar   
    48   24   25 ar   
    49   25   26 ar   
    50   25   50 1    
    51   26   27 ar   
    52   26   51 1    
    53   27   28 ar   
    54   27   52 1    
    55   28   29 ar   
    56   28   53 1    
    57   29   54 1    
    58   30   31 ar   
    59   30   55 1    
    60   31   56 1    
@<TRIPOS>SUBSTRUCTURE
     1 UNK         1 GROUP             0       ****    0 ROOT    
