@<TRIPOS>MOLECULE
/home/yujie/leadopt/data/result/selection/HO1/lig_7l.sdf:1
43   45    1
SMALL
USER_CHARGES


@<TRIPOS>ATOM
      1 O1        -26.2589  -11.9956    5.9077 O.2       1 UNK         0.0000 
      2 C2        -25.2400  -11.7045    6.5337 C.2       1 UNK         0.0000 
      3 C3        -24.3532  -12.8811    6.9742 C.3       1 UNK         0.0000 
      4 N4        -24.7849  -13.4686    8.2371 N.pl3     1 UNK         0.0000 
      5 C5        -24.2658  -13.2058    9.5006 C.ar      1 UNK         0.0000 
      6 C6        -24.9696  -13.9660   10.4300 C.ar      1 UNK         0.0000 
      7 N7        -25.9178  -14.6928    9.7316 N.pl3     1 UNK         0.0000 
      8 C8        -25.8110  -14.3841    8.3931 C.ar      1 UNK         0.0000 
      9 N9        -24.9277  -10.4195    6.8599 N.am      1 UNK         0.0000 
     10 C10       -23.7486  -10.0378    7.6537 C.3       1 UNK         0.0000 
     11 C11       -25.8203   -9.2886    6.4852 C.3       1 UNK         0.0000 
     12 C12       -25.1096   -8.2577    5.5928 C.ar      1 UNK         0.0000 
     13 C13       -24.3089   -7.2465    6.1403 C.ar      1 UNK         0.0000 
     14 C14       -23.6807   -6.3243    5.3087 C.ar      1 UNK         0.0000 
     15 C15       -23.8522   -6.4128    3.9297 C.ar      1 UNK         0.0000 
     16 C16       -24.6390   -7.4190    3.3763 C.ar      1 UNK         0.0000 
     17 C17       -25.2625   -8.3434    4.2067 C.ar      1 UNK         0.0000 
     18 C18       -26.6622   -8.7191    7.6526 C.ar      1 UNK         0.0000 
     19 C19       -27.0667   -9.5516    8.7067 C.ar      1 UNK         0.0000 
     20 C20       -27.8600   -9.0550    9.7363 C.ar      1 UNK         0.0000 
     21 C21       -28.2268   -7.7152    9.7429 C.ar      1 UNK         0.0000 
     22 Cl22      -29.0623   -7.0750   11.1054 Cl        1 UNK         0.0000 
     23 C23       -27.8786   -6.8860    8.6820 C.ar      1 UNK         0.0000 
     24 C24       -27.1178   -7.3935    7.6334 C.ar      1 UNK         0.0000 
     25 H25       -23.2978  -12.6247    7.0277 H         1 UNK         0.0000 
     26 H26       -24.3996  -13.6542    6.2060 H         1 UNK         0.0000 
     27 H27       -23.4575  -12.4973    9.6326 H         1 UNK         0.0000 
     28 H28       -24.8789  -14.0477   11.5063 H         1 UNK         0.0000 
     29 H29       -26.4217  -14.7876    7.5969 H         1 UNK         0.0000 
     30 H30       -23.1076  -10.8607    7.9535 H         1 UNK         0.0000 
     31 H31       -23.1123   -9.3560    7.0881 H         1 UNK         0.0000 
     32 H32       -24.0553   -9.5240    8.5667 H         1 UNK         0.0000 
     33 H33       -26.6088   -9.6789    5.8392 H         1 UNK         0.0000 
     34 H34       -24.1806   -7.1715    7.2100 H         1 UNK         0.0000 
     35 H35       -23.0706   -5.5395    5.7334 H         1 UNK         0.0000 
     36 H36       -23.3711   -5.6942    3.2834 H         1 UNK         0.0000 
     37 H37       -24.7679   -7.4823    2.3072 H         1 UNK         0.0000 
     38 H38       -25.8730   -9.1202    3.7707 H         1 UNK         0.0000 
     39 H39       -26.7844  -10.5938    8.7257 H         1 UNK         0.0000 
     40 H40       -28.1741   -9.6962   10.5431 H         1 UNK         0.0000 
     41 H41       -28.1853   -5.8502    8.6749 H         1 UNK         0.0000 
     42 H42       -26.8813   -6.7442    6.8058 H         1 UNK         0.0000 
     43 H43       -26.5789  -15.3457   10.1367 H         1 UNK         0.0000 
@<TRIPOS>BOND
     1    1    2 2    
     2    2    3 1    
     3    2    9 am   BACKBONE|DICT|INTERRES
     4    3    4 1    
     5    3   25 1    
     6    3   26 1    
     7    4    8 ar   
     8    4    5 ar   
     9    5    6 ar   
    10    5   27 1    
    11    6    7 ar   
    12    6   28 1    
    13    7    8 ar   
    14    7   43 1    
    15    8   29 1    
    16    9   10 1    
    17    9   11 1    
    18   10   30 1    
    19   10   31 1    
    20   10   32 1    
    21   11   12 1    
    22   11   18 1    
    23   11   33 1    
    24   12   17 ar   
    25   12   13 ar   
    26   13   14 ar   
    27   13   34 1    
    28   14   15 ar   
    29   14   35 1    
    30   15   16 ar   
    31   15   36 1    
    32   16   17 ar   
    33   16   37 1    
    34   17   38 1    
    35   18   24 ar   
    36   18   19 ar   
    37   19   20 ar   
    38   19   39 1    
    39   20   21 ar   
    40   20   40 1    
    41   21   22 1    
    42   21   23 ar   
    43   23   24 ar   
    44   23   41 1    
    45   24   42 1    
@<TRIPOS>SUBSTRUCTURE
     1 UNK         1 GROUP             0       ****    0 ROOT    
