@<TRIPOS>MOLECULE
/home/yujie/leadopt/data/result/selection/HO1/lig_7g.sdf:1
33   34    1
SMALL
USER_CHARGES


@<TRIPOS>ATOM
      1 O1        -24.7802  -10.8607    5.9419 O.2       1 UNK         0.0000 
      2 C2        -24.9904  -10.4068    7.0688 C.2       1 UNK         0.0000 
      3 C3        -25.1513  -11.3992    8.2366 C.3       1 UNK         0.0000 
      4 N4        -24.5620  -12.7077    7.9977 N.pl3     1 UNK         0.0000 
      5 C5        -25.2057  -13.8383    7.5072 C.ar      1 UNK         0.0000 
      6 C6        -24.2721  -14.8674    7.4212 C.ar      1 UNK         0.0000 
      7 N7        -23.0619  -14.3525    7.8554 N.pl3     1 UNK         0.0000 
      8 C8        -23.2392  -13.0335    8.2061 C.ar      1 UNK         0.0000 
      9 N9        -25.0925   -9.0721    7.3059 N.am      1 UNK         0.0000 
     10 C10       -24.9720   -8.1008    6.2097 C.3       1 UNK         0.0000 
     11 C11       -25.5429   -8.4899    8.5819 C.3       1 UNK         0.0000 
     12 C12       -27.0561   -8.3545    8.6749 C.ar      1 UNK         0.0000 
     13 C13       -27.6769   -7.2472    8.0960 C.ar      1 UNK         0.0000 
     14 C14       -29.0618   -7.1342    8.1170 C.ar      1 UNK         0.0000 
     15 C15       -29.8194   -8.1421    8.7073 C.ar      1 UNK         0.0000 
     16 C16       -29.2071   -9.2142    9.3501 C.ar      1 UNK         0.0000 
     17 C17       -27.8208   -9.3204    9.3363 C.ar      1 UNK         0.0000 
     18 H18       -26.2132  -11.5412    8.4282 H         1 UNK         0.0000 
     19 H19       -24.6835  -11.0147    9.1403 H         1 UNK         0.0000 
     20 H20       -26.2578  -13.8050    7.2587 H         1 UNK         0.0000 
     21 H21       -24.3602  -15.8939    7.0906 H         1 UNK         0.0000 
     22 H22       -22.4823  -12.3606    8.5916 H         1 UNK         0.0000 
     23 H23       -24.3239   -7.2749    6.5050 H         1 UNK         0.0000 
     24 H24       -24.5480   -8.5318    5.3009 H         1 UNK         0.0000 
     25 H25       -25.9476   -7.6890    5.9522 H         1 UNK         0.0000 
     26 H26       -25.1742   -9.0455    9.4411 H         1 UNK         0.0000 
     27 H27       -25.1000   -7.4995    8.6954 H         1 UNK         0.0000 
     28 H28       -27.0851   -6.4950    7.6013 H         1 UNK         0.0000 
     29 H29       -29.5507   -6.2936    7.6465 H         1 UNK         0.0000 
     30 H30       -30.8989   -8.0955    8.6894 H         1 UNK         0.0000 
     31 H31       -29.8085   -9.9726    9.8307 H         1 UNK         0.0000 
     32 H32       -27.3617  -10.1729    9.8106 H         1 UNK         0.0000 
     33 H33       -22.1821  -14.8524    7.9062 H         1 UNK         0.0000 
@<TRIPOS>BOND
     1    1    2 2    
     2    2    3 1    
     3    2    9 am   BACKBONE|DICT|INTERRES
     4    3    4 1    
     5    3   18 1    
     6    3   19 1    
     7    4    8 ar   
     8    4    5 ar   
     9    5    6 ar   
    10    5   20 1    
    11    6    7 ar   
    12    6   21 1    
    13    7    8 ar   
    14    7   33 1    
    15    8   22 1    
    16    9   10 1    
    17    9   11 1    
    18   10   23 1    
    19   10   24 1    
    20   10   25 1    
    21   11   12 1    
    22   11   26 1    
    23   11   27 1    
    24   12   17 ar   
    25   12   13 ar   
    26   13   14 ar   
    27   13   28 1    
    28   14   15 ar   
    29   14   29 1    
    30   15   16 ar   
    31   15   30 1    
    32   16   17 ar   
    33   16   31 1    
    34   17   32 1    
@<TRIPOS>SUBSTRUCTURE
     1 UNK         1 GROUP             0       ****    0 ROOT    
