@<TRIPOS>MOLECULE
/home/yujie/leadopt/data/result/selection/HO1/lig_7n.sdf:1
43   45    1
SMALL
USER_CHARGES


@<TRIPOS>ATOM
      1 O1        -25.1761  -12.2664    6.3446 O.2       1 UNK         0.0000 
      2 C2        -24.2624  -11.6929    6.9409 C.2       1 UNK         0.0000 
      3 C3        -23.3135  -12.5996    7.7561 C.3       1 UNK         0.0000 
      4 N4        -24.0124  -13.4023    8.7588 N.pl3     1 UNK         0.0000 
      5 C5        -24.5349  -14.6810    8.5859 C.ar      1 UNK         0.0000 
      6 C6        -25.0731  -15.1058    9.7984 C.ar      1 UNK         0.0000 
      7 N7        -24.8848  -14.0770   10.7062 N.pl3     1 UNK         0.0000 
      8 C8        -24.2625  -13.0290   10.0661 C.ar      1 UNK         0.0000 
      9 N9        -24.1343  -10.3319    6.9211 N.am      1 UNK         0.0000 
     10 C10       -22.9981   -9.6132    7.5237 C.3       1 UNK         0.0000 
     11 C11       -25.2533   -9.4680    6.4239 C.3       1 UNK         0.0000 
     12 C12       -24.8418   -8.3795    5.4089 C.ar      1 UNK         0.0000 
     13 C13       -24.0634   -7.2705    5.7732 C.ar      1 UNK         0.0000 
     14 C14       -23.7103   -6.3161    4.8227 C.ar      1 UNK         0.0000 
     15 C15       -24.1470   -6.4539    3.5071 C.ar      1 UNK         0.0000 
     16 C16       -24.9459   -7.5326    3.1412 C.ar      1 UNK         0.0000 
     17 C17       -25.2928   -8.4880    4.0895 C.ar      1 UNK         0.0000 
     18 C18       -26.2013   -9.0098    7.5553 C.ar      1 UNK         0.0000 
     19 C19       -26.6590   -7.6877    7.6646 C.ar      1 UNK         0.0000 
     20 C20       -27.5032   -7.3143    8.7056 C.ar      1 UNK         0.0000 
     21 C21       -27.9087   -8.2646    9.6365 C.ar      1 UNK         0.0000 
     22 I22       -29.0592   -7.6969   11.2796 I         1 UNK         0.0000 
     23 C23       -27.5210   -9.5913    9.5060 C.ar      1 UNK         0.0000 
     24 C24       -26.6622   -9.9578    8.4798 C.ar      1 UNK         0.0000 
     25 H25       -22.5165  -12.0913    8.2867 H         1 UNK         0.0000 
     26 H26       -22.8160  -13.2716    7.0581 H         1 UNK         0.0000 
     27 H27       -24.4693  -15.1684    7.6230 H         1 UNK         0.0000 
     28 H28       -25.5497  -16.0339   10.0912 H         1 UNK         0.0000 
     29 H29       -23.9557  -12.0974   10.5270 H         1 UNK         0.0000 
     30 H30       -22.1878  -10.2243    7.9061 H         1 UNK         0.0000 
     31 H31       -22.5198   -8.9752    6.7837 H         1 UNK         0.0000 
     32 H32       -23.3440   -8.9842    8.3472 H         1 UNK         0.0000 
     33 H33       -25.9261  -10.1113    5.8545 H         1 UNK         0.0000 
     34 H34       -23.7383   -7.1335    6.7944 H         1 UNK         0.0000 
     35 H35       -23.1086   -5.4674    5.1107 H         1 UNK         0.0000 
     36 H36       -23.8767   -5.7137    2.7685 H         1 UNK         0.0000 
     37 H37       -25.3021   -7.6342    2.1262 H         1 UNK         0.0000 
     38 H38       -25.9371   -9.2971    3.7921 H         1 UNK         0.0000 
     39 H39       -26.3680   -6.9287    6.9554 H         1 UNK         0.0000 
     40 H40       -27.8292   -6.2887    8.8004 H         1 UNK         0.0000 
     41 H41       -27.8700  -10.3330   10.2094 H         1 UNK         0.0000 
     42 H42       -26.3766  -10.9952    8.4074 H         1 UNK         0.0000 
     43 H43       -25.1152  -14.1003   11.6951 H         1 UNK         0.0000 
@<TRIPOS>BOND
     1    1    2 2    
     2    2    3 1    
     3    2    9 am   BACKBONE|DICT|INTERRES
     4    3    4 1    
     5    3   25 1    
     6    3   26 1    
     7    4    8 ar   
     8    4    5 ar   
     9    5    6 ar   
    10    5   27 1    
    11    6    7 ar   
    12    6   28 1    
    13    7    8 ar   
    14    7   43 1    
    15    8   29 1    
    16    9   10 1    
    17    9   11 1    
    18   10   30 1    
    19   10   31 1    
    20   10   32 1    
    21   11   12 1    
    22   11   18 1    
    23   11   33 1    
    24   12   17 ar   
    25   12   13 ar   
    26   13   14 ar   
    27   13   34 1    
    28   14   15 ar   
    29   14   35 1    
    30   15   16 ar   
    31   15   36 1    
    32   16   17 ar   
    33   16   37 1    
    34   17   38 1    
    35   18   24 ar   
    36   18   19 ar   
    37   19   20 ar   
    38   19   39 1    
    39   20   21 ar   
    40   20   40 1    
    41   21   22 1    
    42   21   23 ar   
    43   23   24 ar   
    44   23   41 1    
    45   24   42 1    
@<TRIPOS>SUBSTRUCTURE
     1 UNK         1 GROUP             0       ****    0 ROOT    
