@<TRIPOS>MOLECULE
/home/yujie/leadopt/data/result/selection/HO1/lig_7k.sdf:1
48   50    1
SMALL
USER_CHARGES


@<TRIPOS>ATOM
      1 O1        -27.0619  -10.6680    9.6500 O.2       1 UNK         0.0000 
      2 C2        -26.3458  -10.7938    8.6520 C.2       1 UNK         0.0000 
      3 C3        -26.4661  -12.1360    7.8967 C.3       1 UNK         0.0000 
      4 N4        -25.2199  -12.8210    7.5722 N.pl3     1 UNK         0.0000 
      5 C5        -24.1486  -13.0809    8.3898 C.ar      1 UNK         0.0000 
      6 C6        -23.2392  -13.7682    7.5996 C.ar      1 UNK         0.0000 
      7 N7        -23.6947  -13.9629    6.3757 N.2       1 UNK         0.0000 
      8 C8        -24.8822  -13.4071    6.3751 C.ar      1 UNK         0.0000 
      9 N9        -25.5088   -9.7970    8.2388 N.am      1 UNK         0.0000 
     10 C10       -25.3953   -8.5687    9.0521 C.3       1 UNK         0.0000 
     11 C11       -24.7688   -9.7775    6.9459 C.3       1 UNK         0.0000 
     12 C12       -23.4039   -9.0821    7.0358 C.ar      1 UNK         0.0000 
     13 C13       -22.2903   -9.8117    7.4678 C.ar      1 UNK         0.0000 
     14 C14       -21.0092   -9.2911    7.2954 C.ar      1 UNK         0.0000 
     15 C15       -20.8505   -8.0446    6.7063 C.ar      1 UNK         0.0000 
     16 C16       -21.9610   -7.2968    6.3064 C.ar      1 UNK         0.0000 
     17 C17       -23.2295   -7.7926    6.5234 C.ar      1 UNK         0.0000 
     18 C18       -25.6241   -9.3364    5.7029 C.3       1 UNK         0.0000 
     19 C19       -26.6267   -8.1896    5.9587 C.3       1 UNK         0.0000 
     20 C20       -27.0818   -7.4185    4.7267 C.3       1 UNK         0.0000 
     21 C21       -25.9773   -7.1300    3.7103 C.3       1 UNK         0.0000 
     22 C22       -25.4540   -8.4571    3.1791 C.3       1 UNK         0.0000 
     23 C23       -24.8981   -9.3481    4.3104 C.3       1 UNK         0.0000 
     24 H24       -27.0381  -11.9792    6.9826 H         1 UNK         0.0000 
     25 H25       -27.0452  -12.8330    8.5040 H         1 UNK         0.0000 
     26 H26       -24.1174  -12.7370    9.4154 H         1 UNK         0.0000 
     27 H27       -22.2645  -14.1190    7.9055 H         1 UNK         0.0000 
     28 H28       -25.5680  -13.3718    5.5414 H         1 UNK         0.0000 
     29 H29       -26.1314   -8.4972    9.8527 H         1 UNK         0.0000 
     30 H30       -24.4036   -8.5283    9.5057 H         1 UNK         0.0000 
     31 H31       -25.5076   -7.6681    8.4548 H         1 UNK         0.0000 
     32 H32       -24.4819  -10.7892    6.6875 H         1 UNK         0.0000 
     33 H33       -22.4128  -10.8063    7.8739 H         1 UNK         0.0000 
     34 H34       -20.1308   -9.8622    7.5485 H         1 UNK         0.0000 
     35 H35       -19.8581   -7.6448    6.5688 H         1 UNK         0.0000 
     36 H36       -21.8626   -6.3013    5.9062 H         1 UNK         0.0000 
     37 H37       -24.0593   -7.1907    6.1976 H         1 UNK         0.0000 
     38 H38       -26.3226  -10.1585    5.5428 H         1 UNK         0.0000 
     39 H39       -27.4526   -8.4942    6.6031 H         1 UNK         0.0000 
     40 H40       -26.1101   -7.4198    6.5228 H         1 UNK         0.0000 
     41 H41       -27.8854   -7.9582    4.2316 H         1 UNK         0.0000 
     42 H42       -27.4807   -6.4968    5.1062 H         1 UNK         0.0000 
     43 H43       -26.3691   -6.5266    2.8904 H         1 UNK         0.0000 
     44 H44       -25.1680   -6.5538    4.1620 H         1 UNK         0.0000 
     45 H45       -26.2622   -8.9525    2.6463 H         1 UNK         0.0000 
     46 H46       -24.6846   -8.2721    2.4280 H         1 UNK         0.0000 
     47 H47       -23.9204   -8.8964    4.4353 H         1 UNK         0.0000 
     48 H48       -24.6625  -10.3588    3.9904 H         1 UNK         0.0000 
@<TRIPOS>BOND
     1    1    2 2    
     2    2    3 1    
     3    2    9 am   BACKBONE|DICT|INTERRES
     4    3    4 1    
     5    3   24 1    
     6    3   25 1    
     7    4    8 ar   
     8    4    5 ar   
     9    5    6 ar   
    10    5   26 1    
    11    6    7 ar   
    12    6   27 1    
    13    7    8 ar   
    14    8   28 1    
    15    9   10 1    
    16    9   11 1    
    17   10   29 1    
    18   10   30 1    
    19   10   31 1    
    20   11   12 1    
    21   11   18 1    
    22   11   32 1    
    23   12   17 ar   
    24   12   13 ar   
    25   13   14 ar   
    26   13   33 1    
    27   14   15 ar   
    28   14   34 1    
    29   15   16 ar   
    30   15   35 1    
    31   16   17 ar   
    32   16   36 1    
    33   17   37 1    
    34   18   23 1    
    35   18   19 1    
    36   18   38 1    
    37   19   20 1    
    38   19   39 1    
    39   19   40 1    
    40   20   21 1    
    41   20   41 1    
    42   20   42 1    
    43   21   22 1    
    44   21   43 1    
    45   21   44 1    
    46   22   23 1    
    47   22   45 1    
    48   22   46 1    
    49   23   47 1    
    50   23   48 1    
@<TRIPOS>SUBSTRUCTURE
     1 UNK         1 GROUP             0       ****    0 ROOT    
