@<TRIPOS>MOLECULE
/home/yujie/leadopt/data/result/selection/HO1/lig_7j.sdf:1
45   47    1
SMALL
USER_CHARGES


@<TRIPOS>ATOM
      1 O1        -25.1377  -11.2427    6.0784 O.2       1 UNK         0.0000 
      2 C2        -24.2690  -10.7108    6.7698 C.2       1 UNK         0.0000 
      3 C3        -23.1517  -11.6308    7.3209 C.3       1 UNK         0.0000 
      4 N4        -23.6271  -12.9266    7.7930 N.pl3     1 UNK         0.0000 
      5 C5        -23.9255  -14.0401    7.0523 C.ar      1 UNK         0.0000 
      6 C6        -24.3551  -14.9896    7.9683 C.ar      1 UNK         0.0000 
      7 N7        -24.3521  -14.5250    9.2032 N.2       1 UNK         0.0000 
      8 C8        -23.9108  -13.2947    9.0875 C.ar      1 UNK         0.0000 
      9 N9        -24.2965   -9.3735    7.0651 N.am      1 UNK         0.0000 
     10 C10       -23.2996   -8.7185    7.9228 C.3       1 UNK         0.0000 
     11 C11       -25.4476   -8.4736    6.7506 C.3       1 UNK         0.0000 
     12 C12       -26.5873   -8.5240    7.7993 C.ar      1 UNK         0.0000 
     13 C13       -27.2330   -7.3355    8.1452 C.ar      1 UNK         0.0000 
     14 C14       -28.2692   -7.3206    9.0751 C.ar      1 UNK         0.0000 
     15 C15       -28.6597   -8.5052    9.6920 C.ar      1 UNK         0.0000 
     16 C16       -27.9882   -9.6923    9.4088 C.ar      1 UNK         0.0000 
     17 C17       -26.9499   -9.6999    8.4796 C.ar      1 UNK         0.0000 
     18 C18       -25.9182   -8.4968    5.2491 C.3       1 UNK         0.0000 
     19 C19       -26.8199   -7.3271    4.7628 C.3       1 UNK         0.0000 
     20 C20       -26.2436   -6.8296    3.4147 C.3       1 UNK         0.0000 
     21 C21       -25.3127   -7.9283    2.9511 C.3       1 UNK         0.0000 
     22 C22       -24.7373   -8.4320    4.2600 C.3       1 UNK         0.0000 
     23 H23       -22.6011  -11.1994    8.1496 H         1 UNK         0.0000 
     24 H24       -22.4325  -11.8191    6.5270 H         1 UNK         0.0000 
     25 H25       -23.8213  -14.0471    5.9774 H         1 UNK         0.0000 
     26 H26       -24.6919  -15.9922    7.7453 H         1 UNK         0.0000 
     27 H27       -23.7681  -12.5887    9.8929 H         1 UNK         0.0000 
     28 H28       -23.6805   -8.6261    8.9398 H         1 UNK         0.0000 
     29 H29       -22.3368   -9.2189    7.9594 H         1 UNK         0.0000 
     30 H30       -23.0851   -7.7127    7.5610 H         1 UNK         0.0000 
     31 H31       -25.0456   -7.4649    6.8532 H         1 UNK         0.0000 
     32 H32       -26.9348   -6.4161    7.6814 H         1 UNK         0.0000 
     33 H33       -28.7659   -6.3902    9.3119 H         1 UNK         0.0000 
     34 H34       -29.4935   -8.5046   10.3856 H         1 UNK         0.0000 
     35 H35       -28.2830  -10.6096    9.8961 H         1 UNK         0.0000 
     36 H36       -26.4736  -10.6423    8.2623 H         1 UNK         0.0000 
     37 H37       -26.4688   -9.4222    5.0783 H         1 UNK         0.0000 
     38 H38       -27.8312   -7.6973    4.5956 H         1 UNK         0.0000 
     39 H39       -26.9134   -6.5178    5.4844 H         1 UNK         0.0000 
     40 H40       -27.0054   -6.5819    2.6829 H         1 UNK         0.0000 
     41 H41       -25.6289   -5.9378    3.5064 H         1 UNK         0.0000 
     42 H42       -25.8585   -8.7140    2.4254 H         1 UNK         0.0000 
     43 H43       -24.5219   -7.5570    2.3065 H         1 UNK         0.0000 
     44 H44       -23.9607   -7.7552    4.6224 H         1 UNK         0.0000 
     45 H45       -24.2651   -9.3822    4.0922 H         1 UNK         0.0000 
@<TRIPOS>BOND
     1    1    2 2    
     2    2    3 1    
     3    2    9 am   BACKBONE|DICT|INTERRES
     4    3    4 1    
     5    3   23 1    
     6    3   24 1    
     7    4    8 ar   
     8    4    5 ar   
     9    5    6 ar   
    10    5   25 1    
    11    6    7 ar   
    12    6   26 1    
    13    7    8 ar   
    14    8   27 1    
    15    9   10 1    
    16    9   11 1    
    17   10   28 1    
    18   10   29 1    
    19   10   30 1    
    20   11   12 1    
    21   11   18 1    
    22   11   31 1    
    23   12   17 ar   
    24   12   13 ar   
    25   13   14 ar   
    26   13   32 1    
    27   14   15 ar   
    28   14   33 1    
    29   15   16 ar   
    30   15   34 1    
    31   16   17 ar   
    32   16   35 1    
    33   17   36 1    
    34   18   22 1    
    35   18   19 1    
    36   18   37 1    
    37   19   20 1    
    38   19   38 1    
    39   19   39 1    
    40   20   21 1    
    41   20   40 1    
    42   20   41 1    
    43   21   22 1    
    44   21   42 1    
    45   21   43 1    
    46   22   44 1    
    47   22   45 1    
@<TRIPOS>SUBSTRUCTURE
     1 UNK         1 GROUP             0       ****    0 ROOT    
