@<TRIPOS>MOLECULE
/home/yujie/leadopt/data/result/selection/HO1/lig_7b.sdf:1
30   31    1
SMALL
USER_CHARGES


@<TRIPOS>ATOM
      1 O1        -25.1969  -11.2583    5.9964 O.2       1 UNK         0.0000 
      2 C2        -24.5922  -10.6654    6.8949 C.2       1 UNK         0.0000 
      3 C3        -24.1271  -11.5002    8.1126 C.3       1 UNK         0.0000 
      4 N4        -24.2805  -12.9488    7.9814 N.pl3     1 UNK         0.0000 
      5 C5        -23.2661  -13.8542    7.6875 C.ar      1 UNK         0.0000 
      6 C6        -23.8127  -15.1332    7.6536 C.ar      1 UNK         0.0000 
      7 N7        -25.1659  -15.0049    7.9182 N.pl3     1 UNK         0.0000 
      8 C8        -25.4533  -13.6718    8.1211 C.ar      1 UNK         0.0000 
      9 N9        -24.2907   -9.3269    6.8447 N.am      1 UNK         0.0000 
     10 C10       -23.4844   -8.7221    7.9198 C.3       1 UNK         0.0000 
     11 C11       -24.6254   -8.4964    5.7325 C.ar      1 UNK         0.0000 
     12 C12       -23.7034   -7.5403    5.2728 C.ar      1 UNK         0.0000 
     13 C13       -23.9882   -6.7543    4.1585 C.ar      1 UNK         0.0000 
     14 C14       -25.2092   -6.8977    3.5071 C.ar      1 UNK         0.0000 
     15 C15       -26.1508   -7.8119    3.9728 C.ar      1 UNK         0.0000 
     16 C16       -25.8598   -8.6094    5.0724 C.ar      1 UNK         0.0000 
     17 H17       -24.6727  -11.1920    9.0043 H         1 UNK         0.0000 
     18 H18       -23.0711  -11.3061    8.3061 H         1 UNK         0.0000 
     19 H19       -22.2529  -13.5068    7.5281 H         1 UNK         0.0000 
     20 H20       -23.3669  -16.0998    7.4609 H         1 UNK         0.0000 
     21 H21       -26.4290  -13.2569    8.3344 H         1 UNK         0.0000 
     22 H22       -23.4966   -7.6309    7.8806 H         1 UNK         0.0000 
     23 H23       -23.8652   -8.9902    8.9056 H         1 UNK         0.0000 
     24 H24       -22.4438   -9.0457    7.8545 H         1 UNK         0.0000 
     25 H25       -22.7412   -7.4231    5.7488 H         1 UNK         0.0000 
     26 H26       -23.2633   -6.0396    3.7987 H         1 UNK         0.0000 
     27 H27       -25.4330   -6.2914    2.6414 H         1 UNK         0.0000 
     28 H28       -27.1100   -7.9128    3.4911 H         1 UNK         0.0000 
     29 H29       -26.6080   -9.3135    5.4057 H         1 UNK         0.0000 
     30 H30       -25.8376  -15.7644    7.9495 H         1 UNK         0.0000 
@<TRIPOS>BOND
     1    1    2 2    
     2    2    3 1    
     3    2    9 am   BACKBONE|DICT|INTERRES
     4    3    4 1    
     5    3   17 1    
     6    3   18 1    
     7    4    8 ar   
     8    4    5 ar   
     9    5    6 ar   
    10    5   19 1    
    11    6    7 ar   
    12    6   20 1    
    13    7    8 ar   
    14    7   30 1    
    15    8   21 1    
    16    9   10 1    
    17    9   11 1    
    18   10   22 1    
    19   10   23 1    
    20   10   24 1    
    21   11   16 ar   
    22   11   12 ar   
    23   12   13 ar   
    24   12   25 1    
    25   13   14 ar   
    26   13   26 1    
    27   14   15 ar   
    28   14   27 1    
    29   15   16 ar   
    30   15   28 1    
    31   16   29 1    
@<TRIPOS>SUBSTRUCTURE
     1 UNK         1 GROUP             0       ****    0 ROOT    
