@<TRIPOS>MOLECULE
/home/yujie/leadopt/data/result/selection/HO1/lig_7a.sdf:1
26   27    1
SMALL
USER_CHARGES


@<TRIPOS>ATOM
      1 O1        -24.7797  -12.6270    6.6720 O.2       1 UNK         0.0000 
      2 C2        -24.1857  -12.0759    7.6009 C.2       1 UNK         0.0000 
      3 C3        -23.2749  -12.8698    8.5398 C.3       1 UNK         0.0000 
      4 N4        -23.2086  -14.3025    8.3067 N.pl3     1 UNK         0.0000 
      5 C5        -22.5532  -14.9603    7.2983 C.ar      1 UNK         0.0000 
      6 C6        -22.6627  -16.3050    7.6090 C.ar      1 UNK         0.0000 
      7 N7        -23.3756  -16.5009    8.7054 N.2       1 UNK         0.0000 
      8 C8        -23.7091  -15.3000    9.1056 C.ar      1 UNK         0.0000 
      9 N9        -24.2632  -10.7656    7.9070 N.am      1 UNK         0.0000 
     10 C10       -25.0030   -9.7549    7.2709 C.ar      1 UNK         0.0000 
     11 C11       -25.4760   -9.8433    5.9517 C.ar      1 UNK         0.0000 
     12 C12       -26.2319   -8.8060    5.4141 C.ar      1 UNK         0.0000 
     13 C13       -26.5063   -7.6819    6.1865 C.ar      1 UNK         0.0000 
     14 C14       -26.0133   -7.5708    7.4846 C.ar      1 UNK         0.0000 
     15 C15       -25.2539   -8.6053    8.0240 C.ar      1 UNK         0.0000 
     16 H16       -23.5980  -12.7083    9.5692 H         1 UNK         0.0000 
     17 H17       -22.2624  -12.4769    8.4600 H         1 UNK         0.0000 
     18 H18       -22.0507  -14.4217    6.5082 H         1 UNK         0.0000 
     19 H19       -22.2434  -17.1275    7.0487 H         1 UNK         0.0000 
     20 H20       -24.2746  -15.0540    9.9923 H         1 UNK         0.0000 
     21 H21       -23.7648  -10.4951    8.7554 H         1 UNK         0.0000 
     22 H22       -25.2744  -10.7012    5.3298 H         1 UNK         0.0000 
     23 H23       -26.6100   -8.8779    4.4045 H         1 UNK         0.0000 
     24 H24       -27.1026   -6.8865    5.7668 H         1 UNK         0.0000 
     25 H25       -26.2196   -6.6867    8.0706 H         1 UNK         0.0000 
     26 H26       -24.8758   -8.5138    9.0327 H         1 UNK         0.0000 
@<TRIPOS>BOND
     1    1    2 2    
     2    2    3 1    
     3    2    9 am   BACKBONE|DICT|INTERRES
     4    3    4 1    
     5    3   16 1    
     6    3   17 1    
     7    4    8 ar   
     8    4    5 ar   
     9    5    6 ar   
    10    5   18 1    
    11    6    7 ar   
    12    6   19 1    
    13    7    8 ar   
    14    8   20 1    
    15    9   10 1    
    16    9   21 1    
    17   10   15 ar   
    18   10   11 ar   
    19   11   12 ar   
    20   11   22 1    
    21   12   13 ar   
    22   12   23 1    
    23   13   14 ar   
    24   13   24 1    
    25   14   15 ar   
    26   14   25 1    
    27   15   26 1    
@<TRIPOS>SUBSTRUCTURE
     1 UNK         1 GROUP             0       ****    0 ROOT    
