@<TRIPOS>MOLECULE
/home/yujie/leadopt/data/result/selection/HO1/lig_7m.sdf:1
43   45    1
SMALL
USER_CHARGES


@<TRIPOS>ATOM
      1 O1        -22.4396  -10.9286    7.5061 O.2       1 UNK         0.0000 
      2 C2        -23.4663  -11.6066    7.4782 C.2       1 UNK         0.0000 
      3 C3        -23.3054  -13.1301    7.6434 C.3       1 UNK         0.0000 
      4 N4        -24.1247  -13.7401    8.6957 N.pl3     1 UNK         0.0000 
      5 C5        -24.7939  -14.9579    8.6145 C.ar      1 UNK         0.0000 
      6 C6        -25.3534  -15.2444    9.8582 C.ar      1 UNK         0.0000 
      7 N7        -25.0119  -14.2037   10.7040 N.pl3     1 UNK         0.0000 
      8 C8        -24.2739  -13.2845    9.9947 C.ar      1 UNK         0.0000 
      9 N9        -24.7024  -11.0558    7.3360 N.am      1 UNK         0.0000 
     10 C10       -25.7125  -11.7627    6.5309 C.3       1 UNK         0.0000 
     11 C11       -24.9177   -9.6054    7.6105 C.3       1 UNK         0.0000 
     12 C12       -26.2451   -9.2028    8.3023 C.ar      1 UNK         0.0000 
     13 C13       -26.6523   -7.8569    8.3019 C.ar      1 UNK         0.0000 
     14 C14       -27.8622   -7.4721    8.8722 C.ar      1 UNK         0.0000 
     15 C15       -28.6772   -8.4326    9.4580 C.ar      1 UNK         0.0000 
     16 C16       -28.2789   -9.7636    9.4915 C.ar      1 UNK         0.0000 
     17 C17       -27.0575  -10.1459    8.9464 C.ar      1 UNK         0.0000 
     18 C18       -24.5851   -8.7033    6.4156 C.ar      1 UNK         0.0000 
     19 C19       -25.3887   -8.7022    5.2691 C.ar      1 UNK         0.0000 
     20 C20       -25.1348   -7.8053    4.2338 C.ar      1 UNK         0.0000 
     21 Br21      -26.2625   -7.7938    2.7063 Br        1 UNK         0.0000 
     22 C22       -24.0795   -6.8998    4.3341 C.ar      1 UNK         0.0000 
     23 C23       -23.2819   -6.8898    5.4781 C.ar      1 UNK         0.0000 
     24 C24       -23.5245   -7.7951    6.5095 C.ar      1 UNK         0.0000 
     25 H25       -22.2651  -13.3454    7.8959 H         1 UNK         0.0000 
     26 H26       -23.4972  -13.6199    6.6891 H         1 UNK         0.0000 
     27 H27       -24.7968  -15.5216    7.6915 H         1 UNK         0.0000 
     28 H28       -25.9255  -16.0913   10.2163 H         1 UNK         0.0000 
     29 H29       -23.8604  -12.3695   10.3965 H         1 UNK         0.0000 
     30 H30       -25.6405  -12.8475    6.5980 H         1 UNK         0.0000 
     31 H31       -26.7254  -11.5007    6.8236 H         1 UNK         0.0000 
     32 H32       -25.6026  -11.4947    5.4800 H         1 UNK         0.0000 
     33 H33       -24.1712   -9.3401    8.3640 H         1 UNK         0.0000 
     34 H34       -26.0398   -7.0926    7.8460 H         1 UNK         0.0000 
     35 H35       -28.1682   -6.4360    8.8495 H         1 UNK         0.0000 
     36 H36       -29.6295   -8.1481    9.8805 H         1 UNK         0.0000 
     37 H37       -28.9387  -10.5057    9.9063 H         1 UNK         0.0000 
     38 H38       -26.7725  -11.1862    8.9970 H         1 UNK         0.0000 
     39 H39       -26.2361   -9.3669    5.1923 H         1 UNK         0.0000 
     40 H40       -23.8938   -6.1961    3.5359 H         1 UNK         0.0000 
     41 H41       -22.4824   -6.1716    5.5734 H         1 UNK         0.0000 
     42 H42       -22.9040   -7.7708    7.3943 H         1 UNK         0.0000 
     43 H43       -25.2193  -14.1408   11.6955 H         1 UNK         0.0000 
@<TRIPOS>BOND
     1    1    2 2    
     2    2    3 1    
     3    2    9 am   BACKBONE|DICT|INTERRES
     4    3    4 1    
     5    3   25 1    
     6    3   26 1    
     7    4    8 ar   
     8    4    5 ar   
     9    5    6 ar   
    10    5   27 1    
    11    6    7 ar   
    12    6   28 1    
    13    7    8 ar   
    14    7   43 1    
    15    8   29 1    
    16    9   10 1    
    17    9   11 1    
    18   10   30 1    
    19   10   31 1    
    20   10   32 1    
    21   11   12 1    
    22   11   18 1    
    23   11   33 1    
    24   12   17 ar   
    25   12   13 ar   
    26   13   14 ar   
    27   13   34 1    
    28   14   15 ar   
    29   14   35 1    
    30   15   16 ar   
    31   15   36 1    
    32   16   17 ar   
    33   16   37 1    
    34   17   38 1    
    35   18   24 ar   
    36   18   19 ar   
    37   19   20 ar   
    38   19   39 1    
    39   20   21 1    
    40   20   22 ar   
    41   22   23 ar   
    42   22   40 1    
    43   23   24 ar   
    44   23   41 1    
    45   24   42 1    
@<TRIPOS>SUBSTRUCTURE
     1 UNK         1 GROUP             0       ****    0 ROOT    
