@<TRIPOS>MOLECULE
/home/yujie/leadopt/data/result/selection/HO1/lig_7p.sdf:1
57   60    1
SMALL
USER_CHARGES


@<TRIPOS>ATOM
      1 O1        -25.8622  -13.1123   10.1500 O.2       1 UNK         0.0000 
      2 C2        -26.0263  -13.1523    8.9287 C.2       1 UNK         0.0000 
      3 C3        -26.0689  -14.5414    8.2612 C.3       1 UNK         0.0000 
      4 N4        -24.9991  -15.4209    8.7133 N.pl3     1 UNK         0.0000 
      5 C5        -23.8196  -15.6960    8.0306 C.ar      1 UNK         0.0000 
      6 C6        -23.0576  -16.5607    8.8093 C.ar      1 UNK         0.0000 
      7 N7        -23.7697  -16.7990    9.9716 N.pl3     1 UNK         0.0000 
      8 C8        -24.9520  -16.0969    9.9168 C.ar      1 UNK         0.0000 
      9 N9        -26.1777  -12.0267    8.1806 N.am      1 UNK         0.0000 
     10 C10       -26.5319  -12.0692    6.7531 C.3       1 UNK         0.0000 
     11 C11       -26.0968  -10.6820    8.8108 C.3       1 UNK         0.0000 
     12 C12       -27.4352  -10.0795    9.2938 C.ar      1 UNK         0.0000 
     13 C13       -27.4964   -8.7701    9.8033 C.ar      1 UNK         0.0000 
     14 C14       -28.7124   -8.1108    9.9086 C.ar      1 UNK         0.0000 
     15 C15       -29.8627   -8.7765    9.5065 C.ar      1 UNK         0.0000 
     16 C16       -29.8269  -10.0966    9.1214 C.ar      1 UNK         0.0000 
     17 C17       -28.6216  -10.7763    9.1063 C.ar      1 UNK         0.0000 
     18 C18       -25.2471   -9.7011    7.9903 C.ar      1 UNK         0.0000 
     19 C19       -25.7837   -8.5267    7.4518 C.ar      1 UNK         0.0000 
     20 C20       -24.9434   -7.5062    7.0586 C.ar      1 UNK         0.0000 
     21 C21       -23.5574   -7.6985    7.0884 C.ar      1 UNK         0.0000 
     22 O22       -22.6627   -6.8068    6.5551 O.3       1 UNK         0.0000 
     23 C23       -23.1311   -5.8380    5.6208 C.3       1 UNK         0.0000 
     24 C24       -23.7659   -6.4504    4.3715 C.ar      1 UNK         0.0000 
     25 C25       -23.7819   -7.8323    4.2184 C.ar      1 UNK         0.0000 
     26 C26       -24.7683   -8.4332    3.4818 C.ar      1 UNK         0.0000 
     27 C27       -25.6398   -7.6390    2.7687 C.ar      1 UNK         0.0000 
     28 Br28      -27.0625   -8.4968    1.9063 Br        1 UNK         0.0000 
     29 C29       -25.4886   -6.2559    2.7096 C.ar      1 UNK         0.0000 
     30 C30       -24.5087   -5.6586    3.4969 C.ar      1 UNK         0.0000 
     31 C31       -23.0265   -8.9135    7.4972 C.ar      1 UNK         0.0000 
     32 C32       -23.8773   -9.9257    7.9063 C.ar      1 UNK         0.0000 
     33 H33       -26.0262  -14.5017    7.1745 H         1 UNK         0.0000 
     34 H34       -27.0205  -15.0113    8.5122 H         1 UNK         0.0000 
     35 H35       -23.6307  -15.2532    7.0621 H         1 UNK         0.0000 
     36 H36       -22.0872  -17.0114    8.6478 H         1 UNK         0.0000 
     37 H37       -25.7108  -16.0652   10.6877 H         1 UNK         0.0000 
     38 H38       -25.7405  -12.5448    6.1727 H         1 UNK         0.0000 
     39 H39       -27.4615  -12.6173    6.5919 H         1 UNK         0.0000 
     40 H40       -26.6622  -11.0709    6.3363 H         1 UNK         0.0000 
     41 H41       -25.5317  -10.7958    9.7370 H         1 UNK         0.0000 
     42 H42       -26.5991   -8.1949    9.9619 H         1 UNK         0.0000 
     43 H43       -28.7548   -7.0776   10.2201 H         1 UNK         0.0000 
     44 H44       -30.8196   -8.2961    9.4775 H         1 UNK         0.0000 
     45 H45       -30.7355  -10.5915    8.8257 H         1 UNK         0.0000 
     46 H46       -28.6291  -11.7973    8.7596 H         1 UNK         0.0000 
     47 H47       -26.8481   -8.3519    7.4045 H         1 UNK         0.0000 
     48 H48       -25.3838   -6.5913    6.6962 H         1 UNK         0.0000 
     49 H49       -23.8084   -5.1292    6.1008 H         1 UNK         0.0000 
     50 H50       -22.2625   -5.2968    5.3651 H         1 UNK         0.0000 
     51 H51       -23.1532   -8.4752    4.8051 H         1 UNK         0.0000 
     52 H52       -24.8688   -9.5058    3.5051 H         1 UNK         0.0000 
     53 H53       -26.1726   -5.6529    2.1310 H         1 UNK         0.0000 
     54 H54       -24.4677   -4.5804    3.5587 H         1 UNK         0.0000 
     55 H55       -21.9594   -9.0755    7.4848 H         1 UNK         0.0000 
     56 H56       -23.4611  -10.8472    8.2873 H         1 UNK         0.0000 
     57 H57       -23.4692  -17.3835   10.7422 H         1 UNK         0.0000 
@<TRIPOS>BOND
     1    1    2 2    
     2    2    3 1    
     3    2    9 am   BACKBONE|DICT|INTERRES
     4    3    4 1    
     5    3   33 1    
     6    3   34 1    
     7    4    8 ar   
     8    4    5 ar   
     9    5    6 ar   
    10    5   35 1    
    11    6    7 ar   
    12    6   36 1    
    13    7    8 ar   
    14    7   57 1    
    15    8   37 1    
    16    9   10 1    
    17    9   11 1    
    18   10   38 1    
    19   10   39 1    
    20   10   40 1    
    21   11   12 1    
    22   11   18 1    
    23   11   41 1    
    24   12   17 ar   
    25   12   13 ar   
    26   13   14 ar   
    27   13   42 1    
    28   14   15 ar   
    29   14   43 1    
    30   15   16 ar   
    31   15   44 1    
    32   16   17 ar   
    33   16   45 1    
    34   17   46 1    
    35   18   32 ar   
    36   18   19 ar   
    37   19   20 ar   
    38   19   47 1    
    39   20   21 ar   
    40   20   48 1    
    41   21   22 1    
    42   21   31 ar   
    43   22   23 1    
    44   23   24 1    
    45   23   49 1    
    46   23   50 1    
    47   24   30 ar   
    48   24   25 ar   
    49   25   26 ar   
    50   25   51 1    
    51   26   27 ar   
    52   26   52 1    
    53   27   28 1    
    54   27   29 ar   
    55   29   30 ar   
    56   29   53 1    
    57   30   54 1    
    58   31   32 ar   
    59   31   55 1    
    60   32   56 1    
@<TRIPOS>SUBSTRUCTURE
     1 UNK         1 GROUP             0       ****    0 ROOT    
