@<TRIPOS>MOLECULE
/home/yujie/leadopt/data/result/selection/HO1/lig_11c.sdf:1
48   50    1
SMALL
USER_CHARGES


@<TRIPOS>ATOM
      1 O1        -24.6625   -8.8968    9.1063 O.2       1 UNK         0.0000 
      2 C2        -25.0881   -8.7608    7.9654 C.2       1 UNK         0.0000 
      3 N3        -24.5688   -9.4396    6.9099 N.am      1 UNK         0.0000 
      4 C4        -24.9800   -9.1908    5.5153 C.3       1 UNK         0.0000 
      5 C5        -24.5113   -7.8581    4.9247 C.ar      1 UNK         0.0000 
      6 C6        -23.7431   -6.9525    5.6714 C.ar      1 UNK         0.0000 
      7 C7        -23.4624   -5.6948    5.1694 C.ar      1 UNK         0.0000 
      8 C8        -23.8634   -5.3623    3.8850 C.ar      1 UNK         0.0000 
      9 C9        -24.5994   -6.2603    3.1184 C.ar      1 UNK         0.0000 
     10 C10       -24.9298   -7.5092    3.6381 C.ar      1 UNK         0.0000 
     11 C11       -23.3930  -10.3044    7.0983 C.3       1 UNK         0.0000 
     12 C12       -23.6267  -11.7850    6.7502 C.3       1 UNK         0.0000 
     13 C13       -22.3826  -12.6362    7.0755 C.3       1 UNK         0.0000 
     14 N14       -22.4596  -13.9604    6.4742 N.pl3     1 UNK         0.0000 
     15 C15       -22.5736  -14.2768    5.1444 C.ar      1 UNK         0.0000 
     16 C16       -22.5623  -15.6621    5.0901 C.ar      1 UNK         0.0000 
     17 N17       -22.4358  -16.2008    6.2893 N.2       1 UNK         0.0000 
     18 C18       -22.3769  -15.1768    7.1062 C.ar      1 UNK         0.0000 
     19 C19       -26.2580   -7.7758    7.7859 C.3       1 UNK         0.0000 
     20 C20       -27.4154   -8.1671    8.6870 C.ar      1 UNK         0.0000 
     21 C21       -28.0210   -7.2130    9.5025 C.ar      1 UNK         0.0000 
     22 C22       -29.0384   -7.5984   10.3623 C.ar      1 UNK         0.0000 
     23 C23       -29.5252   -8.8967   10.3064 C.ar      1 UNK         0.0000 
     24 C24       -28.9342   -9.8475    9.4960 C.ar      1 UNK         0.0000 
     25 C25       -27.8623   -9.4901    8.7063 C.ar      1 UNK         0.0000 
     26 H26       -24.6625  -10.0017    4.8638 H         1 UNK         0.0000 
     27 H27       -26.0685   -9.2165    5.4561 H         1 UNK         0.0000 
     28 H28       -23.3839   -7.1824    6.6626 H         1 UNK         0.0000 
     29 H29       -22.9088   -4.9861    5.7688 H         1 UNK         0.0000 
     30 H30       -23.6445   -4.3783    3.5064 H         1 UNK         0.0000 
     31 H31       -24.9424   -5.9668    2.1422 H         1 UNK         0.0000 
     32 H32       -25.5303   -8.1893    3.0499 H         1 UNK         0.0000 
     33 H33       -22.5584   -9.8974    6.5341 H         1 UNK         0.0000 
     34 H34       -23.0393  -10.2714    8.1283 H         1 UNK         0.0000 
     35 H35       -24.4774  -12.1657    7.3174 H         1 UNK         0.0000 
     36 H36       -23.8849  -11.8819    5.6970 H         1 UNK         0.0000 
     37 H37       -21.4714  -12.1649    6.7063 H         1 UNK         0.0000 
     38 H38       -22.2626  -12.7321    8.1563 H         1 UNK         0.0000 
     39 H39       -22.6508  -13.5131    4.3837 H         1 UNK         0.0000 
     40 H40       -22.6397  -16.2681    4.1988 H         1 UNK         0.0000 
     41 H41       -22.2623  -15.2187    8.1792 H         1 UNK         0.0000 
     42 H42       -26.6342   -7.6940    6.7697 H         1 UNK         0.0000 
     43 H43       -25.8949   -6.7799    8.0442 H         1 UNK         0.0000 
     44 H44       -27.6789   -6.1892    9.5055 H         1 UNK         0.0000 
     45 H45       -29.4625   -6.8809   11.0487 H         1 UNK         0.0000 
     46 H46       -30.3369   -9.1950   10.9497 H         1 UNK         0.0000 
     47 H47       -29.2894  -10.8653    9.4880 H         1 UNK         0.0000 
     48 H48       -27.3903  -10.2471    8.0969 H         1 UNK         0.0000 
@<TRIPOS>BOND
     1    1    2 2    
     2    2    3 am   BACKBONE|DICT|INTERRES
     3    2   19 1    
     4    3    4 1    
     5    3   11 1    
     6    4    5 1    
     7    4   26 1    
     8    4   27 1    
     9    5   10 ar   
    10    5    6 ar   
    11    6    7 ar   
    12    6   28 1    
    13    7    8 ar   
    14    7   29 1    
    15    8    9 ar   
    16    8   30 1    
    17    9   10 ar   
    18    9   31 1    
    19   10   32 1    
    20   11   12 1    
    21   11   33 1    
    22   11   34 1    
    23   12   13 1    
    24   12   35 1    
    25   12   36 1    
    26   13   14 1    
    27   13   37 1    
    28   13   38 1    
    29   14   18 ar   
    30   14   15 ar   
    31   15   16 ar   
    32   15   39 1    
    33   16   17 ar   
    34   16   40 1    
    35   17   18 ar   
    36   18   41 1    
    37   19   20 1    
    38   19   42 1    
    39   19   43 1    
    40   20   25 ar   
    41   20   21 ar   
    42   21   22 ar   
    43   21   44 1    
    44   22   23 ar   
    45   22   45 1    
    46   23   24 ar   
    47   23   46 1    
    48   24   25 ar   
    49   24   47 1    
    50   25   48 1    
@<TRIPOS>SUBSTRUCTURE
     1 UNK         1 GROUP             0       ****    0 ROOT    
