@<TRIPOS>MOLECULE
/home/yujie/leadopt/data/result/selection/BCL6/lig_13b.sdf:1
52   55    1
SMALL
USER_CHARGES


@<TRIPOS>ATOM
      1 C1        -23.6057   15.7116   18.0308 C.3       1 UNK         0.0000 
      2 C2        -22.8388   14.5759   18.7223 C.3       1 UNK         0.0000 
      3 C3        -22.3049   15.0308   20.0874 C.3       1 UNK         0.0000 
      4 C4        -21.3234   14.0754   20.7981 C.3       1 UNK         0.0000 
      5 C5        -19.9827   13.9709   20.0337 C.3       1 UNK         0.0000 
      6 C6        -21.0472   14.5880   22.2262 C.3       1 UNK         0.0000 
      7 O7        -21.7648   12.7331   21.0115 O.3       1 UNK         0.0000 
      8 C8        -22.2662   11.8664   20.0770 C.ar      1 UNK         0.0000 
      9 C9        -23.1493   12.1547   19.0807 C.ar      1 UNK         0.0000 
     10 N10       -23.6828   13.4050   18.8571 N.pl3     1 UNK         0.0000 
     11 C11       -23.6652   11.0387   18.2297 C.ar      1 UNK         0.0000 
     12 C12       -24.5602   11.2488   17.1631 C.ar      1 UNK         0.0000 
     13 C13       -24.9774   10.1890   16.3545 C.ar      1 UNK         0.0000 
     14 C14       -24.5588    8.8947   16.6654 C.ar      1 UNK         0.0000 
     15 C15       -23.6848    8.6667   17.7240 C.ar      1 UNK         0.0000 
     16 C16       -23.2060    9.7321   18.5093 C.ar      1 UNK         0.0000 
     17 N17       -22.2578    9.5359   19.5607 N.pl3     1 UNK         0.0000 
     18 C18       -21.7826    8.1576   19.8031 C.3       1 UNK         0.0000 
     19 C19       -21.7294   10.5292   20.3480 C.ar      1 UNK         0.0000 
     20 O20       -20.8837   10.3278   21.2294 O.2       1 UNK         0.0000 
     21 N21       -25.8056   10.4522   15.2516 N.pl3     1 UNK         0.0000 
     22 C22       -25.8106    9.8859   13.9555 C.ar      1 UNK         0.0000 
     23 C23       -24.7019    9.1442   13.5253 C.ar      1 UNK         0.0000 
     24 C24       -24.6816    8.6170   12.2392 C.ar      1 UNK         0.0000 
     25 N25       -25.6904    8.7995   11.3606 N.ar      1 UNK         0.0000 
     26 C26       -26.7656    9.5284   11.7535 C.ar      1 UNK         0.0000 
     27 C27       -26.8690   10.0966   13.0396 C.ar      1 UNK         0.0000 
     28 C28       -28.0610   10.8724   13.3868 C.1       1 UNK         0.0000 
     29 N29       -29.0060   11.4839   13.6472 N.1       1 UNK         0.0000 
     30 Cl30      -28.0157    9.7001   10.5586 Cl        1 UNK         0.0000 
     31 H31       -22.9805   16.5943   17.8972 H         1 UNK         0.0000 
     32 H32       -24.4830   16.0141   18.6023 H         1 UNK         0.0000 
     33 H33       -23.9506   15.4118   17.0385 H         1 UNK         0.0000 
     34 H34       -21.9996   14.3177   18.0737 H         1 UNK         0.0000 
     35 H35       -21.8103   15.9970   19.9678 H         1 UNK         0.0000 
     36 H36       -23.1546   15.2262   20.7464 H         1 UNK         0.0000 
     37 H37       -19.5277   14.9506   19.8834 H         1 UNK         0.0000 
     38 H38       -20.1152   13.5109   19.0547 H         1 UNK         0.0000 
     39 H39       -19.2655   13.3487   20.5731 H         1 UNK         0.0000 
     40 H40       -20.6360   15.5985   22.2217 H         1 UNK         0.0000 
     41 H41       -20.3410   13.9427   22.7523 H         1 UNK         0.0000 
     42 H42       -21.9618   14.6021   22.8211 H         1 UNK         0.0000 
     43 H43       -24.3811   13.4150   18.1237 H         1 UNK         0.0000 
     44 H44       -24.9035   12.2440   16.9189 H         1 UNK         0.0000 
     45 H45       -24.9071    8.0556   16.0797 H         1 UNK         0.0000 
     46 H46       -23.3808    7.6470   17.9119 H         1 UNK         0.0000 
     47 H47       -21.0475    8.0655   20.6062 H         1 UNK         0.0000 
     48 H48       -21.3116    7.7564   18.9032 H         1 UNK         0.0000 
     49 H49       -22.6216    7.5107   20.0683 H         1 UNK         0.0000 
     50 H50       -26.4891   11.1812   15.4030 H         1 UNK         0.0000 
     51 H51       -23.8432    8.9913   14.1584 H         1 UNK         0.0000 
     52 H52       -23.8365    8.0423   11.8855 H         1 UNK         0.0000 
@<TRIPOS>BOND
     1    1    2 1    
     2    1   31 1    
     3    1   32 1    
     4    1   33 1    
     5    2   10 1    
     6    2    3 1    
     7    2   34 1    
     8    3    4 1    
     9    3   35 1    
    10    3   36 1    
    11    4    5 1    
    12    4    6 1    
    13    4    7 1    
    14    5   37 1    
    15    5   38 1    
    16    5   39 1    
    17    6   40 1    
    18    6   41 1    
    19    6   42 1    
    20    7    8 1    
    21    8   19 ar   
    22    8    9 ar   
    23    9   10 1    
    24    9   11 ar   
    25   10   43 1    
    26   11   16 ar   
    27   11   12 ar   
    28   12   13 ar   
    29   12   44 1    
    30   13   14 ar   
    31   13   21 1    
    32   14   15 ar   
    33   14   45 1    
    34   15   16 ar   
    35   15   46 1    
    36   16   17 ar   
    37   17   18 1    
    38   17   19 ar   
    39   18   47 1    
    40   18   48 1    
    41   18   49 1    
    42   19   20 2    
    43   21   22 1    
    44   21   50 1    
    45   22   27 ar   
    46   22   23 ar   
    47   23   24 ar   
    48   23   51 1    
    49   24   25 ar   
    50   24   52 1    
    51   25   26 ar   
    52   26   27 ar   
    53   26   30 1    
    54   27   28 1    
    55   28   29 3    
@<TRIPOS>SUBSTRUCTURE
     1 UNK         1 GROUP             0       ****    0 ROOT    
