@<TRIPOS>MOLECULE
/home/yujie/leadopt/data/result/selection/BCL6/lig_1.sdf:1
50   54    1
SMALL
USER_CHARGES


@<TRIPOS>ATOM
      1 C1        -21.7255    8.1467   19.8002 C.3       1 UNK         0.0000 
      2 N2        -22.2440    9.5134   19.5740 N.pl3     1 UNK         0.0000 
      3 C3        -21.7318   10.5111   20.3641 C.ar      1 UNK         0.0000 
      4 O4        -20.8826   10.3287   21.2438 O.2       1 UNK         0.0000 
      5 C5        -22.3040   11.8318   20.1011 C.ar      1 UNK         0.0000 
      6 C6        -23.2283   12.1030   19.1343 C.ar      1 UNK         0.0000 
      7 N7        -23.6828   13.3819   18.8494 N.pl3     1 UNK         0.0000 
      8 C8        -22.9518   14.6064   19.1641 C.3       1 UNK         0.0000 
      9 C9        -23.4688   15.7728   18.2971 C.3       1 UNK         0.0000 
     10 C10       -22.5162   16.8347   17.8104 C.3       1 UNK         0.0000 
     11 C11       -23.1065   15.8313   16.8346 C.3       1 UNK         0.0000 
     12 C12       -22.9422   14.9475   20.6790 C.3       1 UNK         0.0000 
     13 F13       -21.9700   15.8315   20.9148 F         1 UNK         0.0000 
     14 F14       -24.0808   15.5368   21.0523 F         1 UNK         0.0000 
     15 C15       -22.7266   13.7089   21.5658 C.3       1 UNK         0.0000 
     16 O16       -21.8404   12.7478   21.0001 O.3       1 UNK         0.0000 
     17 C17       -23.7333   10.9810   18.2913 C.ar      1 UNK         0.0000 
     18 C18       -24.6648   11.1709   17.2531 C.ar      1 UNK         0.0000 
     19 C19       -25.0508   10.1109   16.4333 C.ar      1 UNK         0.0000 
     20 C20       -24.5815    8.8286   16.7177 C.ar      1 UNK         0.0000 
     21 C21       -23.6809    8.6178   17.7578 C.ar      1 UNK         0.0000 
     22 C22       -23.2209    9.6893   18.5428 C.ar      1 UNK         0.0000 
     23 N23       -25.8840   10.3588   15.3292 N.pl3     1 UNK         0.0000 
     24 C24       -25.8167    9.8444   14.0132 C.ar      1 UNK         0.0000 
     25 C25       -24.6578    9.1740   13.5917 C.ar      1 UNK         0.0000 
     26 C26       -24.5699    8.6988   12.2885 C.ar      1 UNK         0.0000 
     27 N27       -25.5600    8.8638   11.3851 N.ar      1 UNK         0.0000 
     28 C28       -26.6815    9.5225   11.7671 C.ar      1 UNK         0.0000 
     29 C29       -26.8559   10.0336   13.0703 C.ar      1 UNK         0.0000 
     30 C30       -28.0943   10.7374   13.4010 C.1       1 UNK         0.0000 
     31 N31       -29.0777   11.2938   13.6470 N.1       1 UNK         0.0000 
     32 Cl32      -27.8978    9.6779   10.5384 Cl        1 UNK         0.0000 
     33 H33       -21.9168   14.4120   18.8750 H         1 UNK         0.0000 
     34 H34       -20.9510    8.0761   20.5662 H         1 UNK         0.0000 
     35 H35       -22.5341    7.4832   20.1084 H         1 UNK         0.0000 
     36 H36       -21.2881    7.7504   18.8831 H         1 UNK         0.0000 
     37 H37       -24.2336   13.4795   18.0066 H         1 UNK         0.0000 
     38 H38       -24.4821   16.0806   18.5625 H         1 UNK         0.0000 
     39 H39       -22.8645   17.8680   17.7897 H         1 UNK         0.0000 
     40 H40       -21.4631   16.7588   18.0834 H         1 UNK         0.0000 
     41 H41       -22.4690   15.0497   16.4205 H         1 UNK         0.0000 
     42 H42       -23.8760   16.1529   16.1318 H         1 UNK         0.0000 
     43 H43       -22.3038   14.0182   22.5218 H         1 UNK         0.0000 
     44 H44       -23.6822   13.2397   21.8092 H         1 UNK         0.0000 
     45 H45       -25.0521   12.1551   17.0346 H         1 UNK         0.0000 
     46 H46       -24.9050    7.9895   16.1196 H         1 UNK         0.0000 
     47 H47       -23.3363    7.6081   17.9208 H         1 UNK         0.0000 
     48 H48       -26.5985   11.0562   15.4868 H         1 UNK         0.0000 
     49 H49       -23.8125    9.0383   14.2481 H         1 UNK         0.0000 
     50 H50       -23.6840    8.1837   11.9439 H         1 UNK         0.0000 
@<TRIPOS>BOND
     1    1    2 1    
     2    1   34 1    
     3    1   35 1    
     4    1   36 1    
     5    2   22 ar   
     6    2    3 ar   
     7    3    4 2    
     8    3    5 ar   
     9    5   16 1    
    10    5    6 ar   
    11    6    7 1    
    12    6   17 ar   
    13    7    8 1    
    14    7   37 1    
    15    8   33 1    
    16    8    9 1    
    17    8   12 1    
    18    9   11 1    
    19    9   10 1    
    20    9   38 1    
    21   10   11 1    
    22   10   39 1    
    23   10   40 1    
    24   11   41 1    
    25   11   42 1    
    26   12   13 1    
    27   12   14 1    
    28   12   15 1    
    29   15   16 1    
    30   15   43 1    
    31   15   44 1    
    32   17   22 ar   
    33   17   18 ar   
    34   18   19 ar   
    35   18   45 1    
    36   19   20 ar   
    37   19   23 1    
    38   20   21 ar   
    39   20   46 1    
    40   21   22 ar   
    41   21   47 1    
    42   23   24 1    
    43   23   48 1    
    44   24   29 ar   
    45   24   25 ar   
    46   25   26 ar   
    47   25   49 1    
    48   26   27 ar   
    49   26   50 1    
    50   27   28 ar   
    51   28   29 ar   
    52   28   32 1    
    53   29   30 1    
    54   30   31 3    
@<TRIPOS>SUBSTRUCTURE
     1 UNK         1 GROUP             0       ****    0 ROOT    
