@<TRIPOS>MOLECULE
/home/yujie/leadopt/data/result/selection/BCL6/lig_11d.sdf:1
53   56    1
SMALL
USER_CHARGES


@<TRIPOS>ATOM
      1 C1        -21.5371   16.6215   17.3572 C.3       1 UNK         0.0000 
      2 C2        -22.7681   15.7155   17.5548 C.3       1 UNK         0.0000 
      3 C3        -24.0232   16.5602   17.8478 C.3       1 UNK         0.0000 
      4 C4        -22.5005   14.5967   18.5983 C.3       1 UNK         0.0000 
      5 C5        -22.3061   15.0697   20.0575 C.3       1 UNK         0.0000 
      6 C6        -22.4531   13.9522   21.1011 C.3       1 UNK         0.0000 
      7 O7        -21.7674   12.7668   20.7158 O.3       1 UNK         0.0000 
      8 C8        -22.3178   11.8536   19.8611 C.ar      1 UNK         0.0000 
      9 C9        -23.2418   12.1299   18.8912 C.ar      1 UNK         0.0000 
     10 N10       -23.5967   13.5121   18.5119 N.4       1 UNK         0.0000 
     11 C11       -23.8159   11.0094   18.1030 C.ar      1 UNK         0.0000 
     12 C12       -24.7567   11.2176   17.0811 C.ar      1 UNK         0.0000 
     13 C13       -25.2026   10.1529   16.3001 C.ar      1 UNK         0.0000 
     14 C14       -24.7850    8.8579   16.6052 C.ar      1 UNK         0.0000 
     15 C15       -23.8796    8.6331   17.6392 C.ar      1 UNK         0.0000 
     16 C16       -23.3641    9.7029   18.3908 C.ar      1 UNK         0.0000 
     17 N17       -22.3823    9.5137   19.4150 N.pl3     1 UNK         0.0000 
     18 C18       -21.9305    8.1306   19.6842 C.3       1 UNK         0.0000 
     19 C19       -21.7878   10.5163   20.1402 C.ar      1 UNK         0.0000 
     20 O20       -20.8830   10.3298   20.9634 O.2       1 UNK         0.0000 
     21 N21       -26.0522   10.4143   15.2146 N.pl3     1 UNK         0.0000 
     22 C22       -26.0430    9.8748   13.9069 C.ar      1 UNK         0.0000 
     23 C23       -24.9310    9.1440   13.4638 C.ar      1 UNK         0.0000 
     24 C24       -24.9037    8.6481   12.1658 C.ar      1 UNK         0.0000 
     25 N25       -25.9139    8.8425   11.2908 N.ar      1 UNK         0.0000 
     26 C26       -26.9933    9.5551   11.6965 C.ar      1 UNK         0.0000 
     27 C27       -27.0999   10.1030   12.9925 C.ar      1 UNK         0.0000 
     28 C28       -28.2845   10.8804   13.3601 C.1       1 UNK         0.0000 
     29 N29       -29.2208   11.4975   13.6470 N.1       1 UNK         0.0000 
     30 Cl30      -28.2431    9.7468   10.5073 Cl        1 UNK         0.0000 
     31 H31       -21.2947   17.1807   18.2619 H         1 UNK         0.0000 
     32 H32       -21.7036   17.3467   16.5600 H         1 UNK         0.0000 
     33 H33       -20.6562   16.0411   17.0825 H         1 UNK         0.0000 
     34 H34       -22.9422   15.2261   16.5930 H         1 UNK         0.0000 
     35 H35       -23.8911   17.2201   18.7054 H         1 UNK         0.0000 
     36 H36       -24.8829   15.9293   18.0507 H         1 UNK         0.0000 
     37 H37       -24.2807   17.1908   16.9959 H         1 UNK         0.0000 
     38 H38       -21.6144   14.0438   18.2765 H         1 UNK         0.0000 
     39 H39       -21.3190   15.5248   20.1509 H         1 UNK         0.0000 
     40 H40       -23.0155   15.8577   20.3126 H         1 UNK         0.0000 
     41 H41       -22.0396   14.2875   22.0531 H         1 UNK         0.0000 
     42 H42       -23.5053   13.7327   21.3008 H         1 UNK         0.0000 
     43 H43       -24.3962   13.8180   19.0448 H         1 UNK         0.0000 
     44 H44       -25.1088   12.2104   16.8426 H         1 UNK         0.0000 
     45 H45       -25.1600    8.0226   16.0321 H         1 UNK         0.0000 
     46 H46       -23.5757    7.6137   17.8226 H         1 UNK         0.0000 
     47 H47       -21.1671    8.0443   20.4594 H         1 UNK         0.0000 
     48 H48       -21.5065    7.6851   18.7837 H         1 UNK         0.0000 
     49 H49       -22.7716    7.5150   20.0050 H         1 UNK         0.0000 
     50 H50       -26.7491   11.1272   15.3872 H         1 UNK         0.0000 
     51 H51       -24.0740    8.9765   14.0974 H         1 UNK         0.0000 
     52 H52       -24.0554    8.0878   11.8019 H         1 UNK         0.0000 
     53 H53       -23.9052   13.5024   17.5482 H         1 UNK         0.0000 
@<TRIPOS>BOND
     1    1    2 1    
     2    1   31 1    
     3    1   32 1    
     4    1   33 1    
     5    2    3 1    
     6    2    4 1    
     7    2   34 1    
     8    3   35 1    
     9    3   36 1    
    10    3   37 1    
    11    4   10 1    
    12    4    5 1    
    13    4   38 1    
    14    5    6 1    
    15    5   39 1    
    16    5   40 1    
    17    6    7 1    
    18    6   41 1    
    19    6   42 1    
    20    7    8 1    
    21    8   19 ar   
    22    8    9 ar   
    23    9   10 1    
    24    9   11 ar   
    25   10   43 1    
    26   10   53 1    
    27   11   16 ar   
    28   11   12 ar   
    29   12   13 ar   
    30   12   44 1    
    31   13   14 ar   
    32   13   21 1    
    33   14   15 ar   
    34   14   45 1    
    35   15   16 ar   
    36   15   46 1    
    37   16   17 ar   
    38   17   18 1    
    39   17   19 ar   
    40   18   47 1    
    41   18   48 1    
    42   18   49 1    
    43   19   20 2    
    44   21   22 1    
    45   21   50 1    
    46   22   27 ar   
    47   22   23 ar   
    48   23   24 ar   
    49   23   51 1    
    50   24   25 ar   
    51   24   52 1    
    52   25   26 ar   
    53   26   27 ar   
    54   26   30 1    
    55   27   28 1    
    56   28   29 3    
@<TRIPOS>SUBSTRUCTURE
     1 UNK         1 GROUP             0       ****    0 ROOT    
