@<TRIPOS>MOLECULE
/home/yujie/leadopt/data/result/selection/BCL6/lig_14.sdf:1
50   54    1
SMALL
USER_CHARGES


@<TRIPOS>ATOM
      1 C1        -22.3880    8.4536   19.7360 C.3       1 UNK         0.0000 
      2 N2        -22.6360    9.8526   19.3292 N.pl3     1 UNK         0.0000 
      3 C3        -21.9020   10.8223   19.9652 C.ar      1 UNK         0.0000 
      4 O4        -21.0667   10.5944   20.8475 O.2       1 UNK         0.0000 
      5 C5        -22.1709   12.1803   19.4918 C.ar      1 UNK         0.0000 
      6 C6        -23.0345   12.5026   18.4859 C.ar      1 UNK         0.0000 
      7 N7        -23.2815   13.8031   18.0588 N.pl3     1 UNK         0.0000 
      8 C8        -22.9849   15.0208   18.8131 C.3       1 UNK         0.0000 
      9 C9        -23.8325   16.1917   18.2386 C.3       1 UNK         0.0000 
     10 C10       -23.3485   17.6213   18.1541 C.3       1 UNK         0.0000 
     11 C11       -23.5362   16.7979   16.8887 C.3       1 UNK         0.0000 
     12 C12       -21.4600   15.2938   19.0051 C.3       1 UNK         0.0000 
     13 F13       -20.9039   15.8424   17.9235 F         1 UNK         0.0000 
     14 F14       -21.3077   16.1725   19.9985 F         1 UNK         0.0000 
     15 C15       -20.6513   14.0305   19.3449 C.3       1 UNK         0.0000 
     16 O16       -21.3695   13.0817   20.1212 O.3       1 UNK         0.0000 
     17 C17       -23.7788   11.3990   17.8160 C.ar      1 UNK         0.0000 
     18 C18       -24.6232   11.6283   16.7192 C.ar      1 UNK         0.0000 
     19 C19       -25.2735   10.5784   16.0683 C.ar      1 UNK         0.0000 
     20 C20       -25.1287    9.2870   16.5689 C.ar      1 UNK         0.0000 
     21 C21       -24.2797    9.0363   17.6464 C.ar      1 UNK         0.0000 
     22 C22       -23.5748   10.0807   18.2726 C.ar      1 UNK         0.0000 
     23 N23       -26.0802   10.7814   14.9359 N.pl3     1 UNK         0.0000 
     24 C24       -26.0489   11.7833   13.9391 C.ar      1 UNK         0.0000 
     25 C25       -24.8748   12.5182   13.7238 C.ar      1 UNK         0.0000 
     26 C26       -24.8516   13.5106   12.7494 C.ar      1 UNK         0.0000 
     27 N27       -25.9220   13.7954   11.9756 N.ar      1 UNK         0.0000 
     28 C28       -27.0570   13.0733   12.1480 C.ar      1 UNK         0.0000 
     29 C29       -27.1657   12.0489   13.1121 C.ar      1 UNK         0.0000 
     30 C30       -28.4210   11.3089   13.2465 C.1       1 UNK         0.0000 
     31 N31       -29.4149   10.7284   13.3474 N.1       1 UNK         0.0000 
     32 Cl32      -28.3703   13.4981   11.0969 Cl        1 UNK         0.0000 
     33 H33       -23.3800   14.8337   19.8146 H         1 UNK         0.0000 
     34 H34       -21.5885    8.3319   20.4706 H         1 UNK         0.0000 
     35 H35       -23.2833    8.0202   20.1794 H         1 UNK         0.0000 
     36 H36       -22.1076    7.8471   18.8720 H         1 UNK         0.0000 
     37 H37       -24.1254   13.9159   17.5109 H         1 UNK         0.0000 
     38 H38       -24.8890   16.0444   18.4478 H         1 UNK         0.0000 
     39 H39       -24.0598   18.4151   18.3826 H         1 UNK         0.0000 
     40 H40       -22.3397   17.8827   18.4724 H         1 UNK         0.0000 
     41 H41       -22.6647   16.4519   16.3331 H         1 UNK         0.0000 
     42 H42       -24.3779   17.0172   16.2310 H         1 UNK         0.0000 
     43 H43       -20.2726   13.5601   18.4346 H         1 UNK         0.0000 
     44 H44       -19.7639   14.3095   19.9146 H         1 UNK         0.0000 
     45 H45       -24.7848   12.6346   16.3664 H         1 UNK         0.0000 
     46 H46       -25.6399    8.4623   16.0937 H         1 UNK         0.0000 
     47 H47       -24.1662    8.0136   17.9698 H         1 UNK         0.0000 
     48 H48       -26.8188   10.1009   14.8249 H         1 UNK         0.0000 
     49 H49       -23.9773   12.3222   14.2869 H         1 UNK         0.0000 
     50 H50       -23.9593   14.0949   12.5728 H         1 UNK         0.0000 
@<TRIPOS>BOND
     1    1    2 1    
     2    1   34 1    
     3    1   35 1    
     4    1   36 1    
     5    2   22 ar   
     6    2    3 ar   
     7    3    4 2    
     8    3    5 ar   
     9    5   16 1    
    10    5    6 ar   
    11    6    7 1    
    12    6   17 ar   
    13    7    8 1    
    14    7   37 1    
    15    8   33 1    
    16    8    9 1    
    17    8   12 1    
    18    9   11 1    
    19    9   10 1    
    20    9   38 1    
    21   10   11 1    
    22   10   39 1    
    23   10   40 1    
    24   11   41 1    
    25   11   42 1    
    26   12   13 1    
    27   12   14 1    
    28   12   15 1    
    29   15   16 1    
    30   15   43 1    
    31   15   44 1    
    32   17   22 ar   
    33   17   18 ar   
    34   18   19 ar   
    35   18   45 1    
    36   19   20 ar   
    37   19   23 1    
    38   20   21 ar   
    39   20   46 1    
    40   21   22 ar   
    41   21   47 1    
    42   23   24 1    
    43   23   48 1    
    44   24   29 ar   
    45   24   25 ar   
    46   25   26 ar   
    47   25   49 1    
    48   26   27 ar   
    49   26   50 1    
    50   27   28 ar   
    51   28   29 ar   
    52   28   32 1    
    53   29   30 1    
    54   30   31 3    
@<TRIPOS>SUBSTRUCTURE
     1 UNK         1 GROUP             0       ****    0 ROOT    
