@<TRIPOS>MOLECULE
/home/yujie/leadopt/data/result/selection/BCL6/lig_6.sdf:1
43   46    1
SMALL
USER_CHARGES


@<TRIPOS>ATOM
      1 C1        -23.6187   15.4246   20.3564 C.3       1 UNK         0.0000 
      2 C2        -22.6693   14.8840   19.2703 C.3       1 UNK         0.0000 
      3 C3        -21.3111   14.3853   19.8294 C.3       1 UNK         0.0000 
      4 O4        -21.4613   13.1663   20.5742 O.3       1 UNK         0.0000 
      5 C5        -22.1301   12.1738   19.9056 C.ar      1 UNK         0.0000 
      6 C6        -23.0473   12.4347   18.9345 C.ar      1 UNK         0.0000 
      7 N7        -23.2927   13.7510   18.5841 N.pl3     1 UNK         0.0000 
      8 C8        -23.7202   11.3219   18.2126 C.ar      1 UNK         0.0000 
      9 C9        -24.6223   11.5273   17.1550 C.ar      1 UNK         0.0000 
     10 C10       -25.1323   10.4450   16.4355 C.ar      1 UNK         0.0000 
     11 C11       -24.8085    9.1481   16.8337 C.ar      1 UNK         0.0000 
     12 C12       -23.9381    8.9303   17.8970 C.ar      1 UNK         0.0000 
     13 C13       -23.3632   10.0092   18.5897 C.ar      1 UNK         0.0000 
     14 N14       -22.4176    9.8182   19.6466 N.pl3     1 UNK         0.0000 
     15 C15       -22.0958    8.4287   20.0377 C.3       1 UNK         0.0000 
     16 C16       -21.7451   10.8201   20.3022 C.ar      1 UNK         0.0000 
     17 O17       -20.8831   10.6233   21.1651 O.2       1 UNK         0.0000 
     18 N18       -25.9424   10.6726   15.3120 N.pl3     1 UNK         0.0000 
     19 C19       -25.9262   10.0331   14.0509 C.ar      1 UNK         0.0000 
     20 C20       -24.7999    9.2863   13.6767 C.ar      1 UNK         0.0000 
     21 C21       -24.7525    8.6929   12.4209 C.ar      1 UNK         0.0000 
     22 N22       -25.7550    8.8068   11.5237 N.ar      1 UNK         0.0000 
     23 C23       -26.8514    9.5286   11.8654 C.ar      1 UNK         0.0000 
     24 C24       -26.9806   10.1670   13.1166 C.ar      1 UNK         0.0000 
     25 C25       -28.1928   10.9292   13.4180 C.1       1 UNK         0.0000 
     26 N26       -29.1558   11.5278   13.6471 N.1       1 UNK         0.0000 
     27 Cl27      -28.0932    9.6060   10.6558 Cl        1 UNK         0.0000 
     28 H28       -23.1156   16.1639   20.9794 H         1 UNK         0.0000 
     29 H29       -23.9775   14.6318   21.0167 H         1 UNK         0.0000 
     30 H30       -24.4821   15.9288   19.9176 H         1 UNK         0.0000 
     31 H31       -22.4885   15.6718   18.5379 H         1 UNK         0.0000 
     32 H32       -20.6205   14.2058   19.0022 H         1 UNK         0.0000 
     33 H33       -20.8515   15.1428   20.4654 H         1 UNK         0.0000 
     34 H34       -24.0597   13.9959   17.9705 H         1 UNK         0.0000 
     35 H35       -24.8813   12.5285   16.8442 H         1 UNK         0.0000 
     36 H36       -25.2235    8.3010   16.3070 H         1 UNK         0.0000 
     37 H37       -23.7108    7.9068   18.1523 H         1 UNK         0.0000 
     38 H38       -21.3633    8.3426   20.8410 H         1 UNK         0.0000 
     39 H39       -21.6900    7.8809   19.1874 H         1 UNK         0.0000 
     40 H40       -22.9945    7.9147   20.3795 H         1 UNK         0.0000 
     41 H41       -26.6124   11.4216   15.4144 H         1 UNK         0.0000 
     42 H42       -23.9524    9.1817   14.3367 H         1 UNK         0.0000 
     43 H43       -23.8892    8.1223   12.1102 H         1 UNK         0.0000 
@<TRIPOS>BOND
     1    1    2 1    
     2    1   28 1    
     3    1   29 1    
     4    1   30 1    
     5    2    7 1    
     6    2    3 1    
     7    2   31 1    
     8    3    4 1    
     9    3   32 1    
    10    3   33 1    
    11    4    5 1    
    12    5   16 ar   
    13    5    6 ar   
    14    6    7 1    
    15    6    8 ar   
    16    7   34 1    
    17    8   13 ar   
    18    8    9 ar   
    19    9   10 ar   
    20    9   35 1    
    21   10   11 ar   
    22   10   18 1    
    23   11   12 ar   
    24   11   36 1    
    25   12   13 ar   
    26   12   37 1    
    27   13   14 ar   
    28   14   15 1    
    29   14   16 ar   
    30   15   38 1    
    31   15   39 1    
    32   15   40 1    
    33   16   17 2    
    34   18   19 1    
    35   18   41 1    
    36   19   24 ar   
    37   19   20 ar   
    38   20   21 ar   
    39   20   42 1    
    40   21   22 ar   
    41   21   43 1    
    42   22   23 ar   
    43   23   24 ar   
    44   23   27 1    
    45   24   25 1    
    46   25   26 3    
@<TRIPOS>SUBSTRUCTURE
     1 UNK         1 GROUP             0       ****    0 ROOT    
