@<TRIPOS>MOLECULE
/home/yujie/leadopt/data/result/selection/BCL6/lig_3.sdf:1
59   63    1
SMALL
USER_CHARGES


@<TRIPOS>ATOM
      1 C1        -21.8363    8.8059   20.0447 C.3       1 UNK         0.0000 
      2 N2        -22.2245   10.1701   19.6346 N.pl3     1 UNK         0.0000 
      3 C3        -21.4757   11.2016   20.1371 C.ar      1 UNK         0.0000 
      4 O4        -20.4822   11.0927   20.8513 O.2       1 UNK         0.0000 
      5 C5        -21.9590   12.5151   19.7705 C.ar      1 UNK         0.0000 
      6 C6        -22.9573   12.7566   18.8944 C.ar      1 UNK         0.0000 
      7 N7        -23.4561   14.0200   18.6138 N.pl3     1 UNK         0.0000 
      8 C8        -23.0863   15.3450   19.1349 C.3       1 UNK         0.0000 
      9 C9        -23.9331   16.4154   18.4045 C.3       1 UNK         0.0000 
     10 C10       -23.4416   15.4463   20.6474 C.3       1 UNK         0.0000 
     11 C11       -21.5895   15.6299   18.8427 C.ar      1 UNK         0.0000 
     12 N12       -21.2104   15.6575   17.5297 N.ar      1 UNK         0.0000 
     13 C13       -19.9208   15.9972   17.2746 C.ar      1 UNK         0.0000 
     14 C14       -19.0123   16.3239   18.2863 C.ar      1 UNK         0.0000 
     15 C15       -19.4892   16.2581   19.6014 C.ar      1 UNK         0.0000 
     16 N16       -20.7664   15.9082   19.8966 N.ar      1 UNK         0.0000 
     17 C17       -17.5913   16.7318   17.9447 C.3       1 UNK         0.0000 
     18 C18       -17.2549   18.1581   17.5801 C.3       1 UNK         0.0000 
     19 C19       -16.7161   17.5602   18.8610 C.3       1 UNK         0.0000 
     20 C20       -23.6309   11.6049   18.2223 C.ar      1 UNK         0.0000 
     21 C21       -24.5238   11.7473   17.1459 C.ar      1 UNK         0.0000 
     22 C22       -25.0417   10.6277   16.4920 C.ar      1 UNK         0.0000 
     23 C23       -24.7238    9.3536   16.9615 C.ar      1 UNK         0.0000 
     24 C24       -23.8367    9.1940   18.0215 C.ar      1 UNK         0.0000 
     25 C25       -23.2443   10.3090   18.6382 C.ar      1 UNK         0.0000 
     26 N26       -25.8557   10.7987   15.3610 N.pl3     1 UNK         0.0000 
     27 C27       -25.8341   10.1061   14.1295 C.ar      1 UNK         0.0000 
     28 C28       -24.7054    9.3428   13.7932 C.ar      1 UNK         0.0000 
     29 C29       -24.6515    8.7043   12.5600 C.ar      1 UNK         0.0000 
     30 N30       -25.6443    8.7908   11.6485 N.ar      1 UNK         0.0000 
     31 C31       -26.7402    9.5286   11.9554 C.ar      1 UNK         0.0000 
     32 C32       -26.8832   10.2045   13.1851 C.ar      1 UNK         0.0000 
     33 C33       -28.1084   10.9582   13.4505 C.1       1 UNK         0.0000 
     34 N34       -29.0836   11.5484   13.6466 N.1       1 UNK         0.0000 
     35 Cl35      -27.9696    9.5628   10.7330 Cl        1 UNK         0.0000 
     36 H36       -21.0685    8.7750   20.8178 H         1 UNK         0.0000 
     37 H37       -22.6973    8.2712   20.4463 H         1 UNK         0.0000 
     38 H38       -21.4530    8.2453   19.1922 H         1 UNK         0.0000 
     39 H39       -21.4671   13.3343   20.2679 H         1 UNK         0.0000 
     40 H40       -24.3073   14.0741   18.0691 H         1 UNK         0.0000 
     41 H41       -23.6330   17.4240   18.6939 H         1 UNK         0.0000 
     42 H42       -23.8322   16.3485   17.3195 H         1 UNK         0.0000 
     43 H43       -24.9941   16.3288   18.6267 H         1 UNK         0.0000 
     44 H44       -23.2604   16.4503   21.0357 H         1 UNK         0.0000 
     45 H45       -24.4830   15.2135   20.8472 H         1 UNK         0.0000 
     46 H46       -22.8570   14.7593   21.2570 H         1 UNK         0.0000 
     47 H47       -19.6293   16.0243   16.2347 H         1 UNK         0.0000 
     48 H48       -18.8617   16.4953   20.4476 H         1 UNK         0.0000 
     49 H49       -17.0799   15.9817   17.3384 H         1 UNK         0.0000 
     50 H50       -16.5725   18.3320   16.7467 H         1 UNK         0.0000 
     51 H51       -18.0448   18.9073   17.6337 H         1 UNK         0.0000 
     52 H52       -17.1107   17.9316   19.8076 H         1 UNK         0.0000 
     53 H53       -15.6538   17.3214   18.9235 H         1 UNK         0.0000 
     54 H54       -24.7814   12.7279   16.7738 H         1 UNK         0.0000 
     55 H55       -25.1458    8.4789   16.4865 H         1 UNK         0.0000 
     56 H56       -23.5942    8.1867   18.3226 H         1 UNK         0.0000 
     57 H57       -26.5200   11.5580   15.4213 H         1 UNK         0.0000 
     58 H58       -23.8596    9.2647   14.4589 H         1 UNK         0.0000 
     59 H59       -23.7877    8.1169   12.2794 H         1 UNK         0.0000 
@<TRIPOS>BOND
     1    1    2 1    
     2    1   36 1    
     3    1   37 1    
     4    1   38 1    
     5    2   25 ar   
     6    2    3 ar   
     7    3    4 2    
     8    3    5 ar   
     9    5    6 ar   
    10    5   39 1    
    11    6    7 1    
    12    6   20 ar   
    13    7    8 1    
    14    7   40 1    
    15    8    9 1    
    16    8   10 1    
    17    8   11 1    
    18    9   41 1    
    19    9   42 1    
    20    9   43 1    
    21   10   44 1    
    22   10   45 1    
    23   10   46 1    
    24   11   16 ar   
    25   11   12 ar   
    26   12   13 ar   
    27   13   14 ar   
    28   13   47 1    
    29   14   15 ar   
    30   14   17 1    
    31   15   16 ar   
    32   15   48 1    
    33   17   19 1    
    34   17   18 1    
    35   17   49 1    
    36   18   19 1    
    37   18   50 1    
    38   18   51 1    
    39   19   52 1    
    40   19   53 1    
    41   20   25 ar   
    42   20   21 ar   
    43   21   22 ar   
    44   21   54 1    
    45   22   23 ar   
    46   22   26 1    
    47   23   24 ar   
    48   23   55 1    
    49   24   25 ar   
    50   24   56 1    
    51   26   27 1    
    52   26   57 1    
    53   27   32 ar   
    54   27   28 ar   
    55   28   29 ar   
    56   28   58 1    
    57   29   30 ar   
    58   29   59 1    
    59   30   31 ar   
    60   31   32 ar   
    61   31   35 1    
    62   32   33 1    
    63   33   34 3    
@<TRIPOS>SUBSTRUCTURE
     1 UNK         1 GROUP             0       ****    0 ROOT    
