@<TRIPOS>MOLECULE
/home/yujie/leadopt/data/result/selection/BCL6/lig_13a.sdf:1
49   52    1
SMALL
USER_CHARGES


@<TRIPOS>ATOM
      1 C1        -23.4739   15.8909   17.9133 C.3       1 UNK         0.0000 
      2 C2        -22.8866   14.7305   18.7325 C.3       1 UNK         0.0000 
      3 C3        -22.7070   15.1282   20.2122 C.3       1 UNK         0.0000 
      4 C4        -22.4465   13.9506   21.1695 C.3       1 UNK         0.0000 
      5 C5        -21.7108   14.3878   22.4444 C.3       1 UNK         0.0000 
      6 O6        -21.6582   12.9346   20.5580 O.3       1 UNK         0.0000 
      7 C7        -22.2412   11.9870   19.7653 C.ar      1 UNK         0.0000 
      8 C8        -23.2352   12.2436   18.8662 C.ar      1 UNK         0.0000 
      9 N9        -23.6828   13.5214   18.5647 N.pl3     1 UNK         0.0000 
     10 C10       -23.8287   11.1012   18.1126 C.ar      1 UNK         0.0000 
     11 C11       -24.7848   11.2811   17.0974 C.ar      1 UNK         0.0000 
     12 C12       -25.2279   10.2029   16.3341 C.ar      1 UNK         0.0000 
     13 C13       -24.7910    8.9175   16.6499 C.ar      1 UNK         0.0000 
     14 C14       -23.8642    8.7179   17.6681 C.ar      1 UNK         0.0000 
     15 C15       -23.3459    9.8043   18.3938 C.ar      1 UNK         0.0000 
     16 N16       -22.3336    9.6389   19.3899 N.pl3     1 UNK         0.0000 
     17 C17       -21.8760    8.2629   19.6800 C.3       1 UNK         0.0000 
     18 C18       -21.7021   10.6585   20.0545 C.ar      1 UNK         0.0000 
     19 O19       -20.7711   10.4915   20.8487 O.2       1 UNK         0.0000 
     20 N20       -26.0823   10.4389   15.2473 N.pl3     1 UNK         0.0000 
     21 C21       -26.0507    9.8994   13.9410 C.ar      1 UNK         0.0000 
     22 C22       -24.9172    9.1930   13.5104 C.ar      1 UNK         0.0000 
     23 C23       -24.8687    8.6913   12.2148 C.ar      1 UNK         0.0000 
     24 N24       -25.8753    8.8592   11.3304 N.ar      1 UNK         0.0000 
     25 C25       -26.9748    9.5479   11.7248 C.ar      1 UNK         0.0000 
     26 C26       -27.1048   10.0975   13.0183 C.ar      1 UNK         0.0000 
     27 C27       -28.3121   10.8464   13.3729 C.1       1 UNK         0.0000 
     28 N28       -29.2679   11.4376   13.6467 N.1       1 UNK         0.0000 
     29 Cl29      -28.2195    9.7034   10.5261 Cl        1 UNK         0.0000 
     30 H30       -21.8995   14.5049   18.3231 H         1 UNK         0.0000 
     31 H31       -23.4039   13.5153   21.4691 H         1 UNK         0.0000 
     32 H32       -22.8573   16.7867   17.9958 H         1 UNK         0.0000 
     33 H33       -24.4815   16.1482   18.2445 H         1 UNK         0.0000 
     34 H34       -23.5349   15.6346   16.8549 H         1 UNK         0.0000 
     35 H35       -21.8836   15.8413   20.2661 H         1 UNK         0.0000 
     36 H36       -23.5876   15.6661   20.5672 H         1 UNK         0.0000 
     37 H37       -22.3190   15.0698   23.0389 H         1 UNK         0.0000 
     38 H38       -20.7731   14.8910   22.2065 H         1 UNK         0.0000 
     39 H39       -21.4620   13.5290   23.0641 H         1 UNK         0.0000 
     40 H40       -24.3169   13.5954   17.7802 H         1 UNK         0.0000 
     41 H41       -25.1416   12.2689   16.8466 H         1 UNK         0.0000 
     42 H42       -25.1582    8.0693   16.0915 H         1 UNK         0.0000 
     43 H43       -23.5419    7.7052   17.8563 H         1 UNK         0.0000 
     44 H44       -21.1037    8.1949   20.4483 H         1 UNK         0.0000 
     45 H45       -21.4639    7.8019   18.7815 H         1 UNK         0.0000 
     46 H46       -22.7127    7.6545   20.0244 H         1 UNK         0.0000 
     47 H47       -26.7967   11.1333   15.4168 H         1 UNK         0.0000 
     48 H48       -24.0631    9.0491   14.1537 H         1 UNK         0.0000 
     49 H49       -24.0027    8.1491   11.8617 H         1 UNK         0.0000 
@<TRIPOS>BOND
     1    1    2 1    
     2    1   32 1    
     3    1   33 1    
     4    1   34 1    
     5    2   30 1    
     6    2    9 1    
     7    2    3 1    
     8    3    4 1    
     9    3   35 1    
    10    3   36 1    
    11    4   31 1    
    12    4    5 1    
    13    4    6 1    
    14    5   37 1    
    15    5   38 1    
    16    5   39 1    
    17    6    7 1    
    18    7   18 ar   
    19    7    8 ar   
    20    8    9 1    
    21    8   10 ar   
    22    9   40 1    
    23   10   15 ar   
    24   10   11 ar   
    25   11   12 ar   
    26   11   41 1    
    27   12   13 ar   
    28   12   20 1    
    29   13   14 ar   
    30   13   42 1    
    31   14   15 ar   
    32   14   43 1    
    33   15   16 ar   
    34   16   17 1    
    35   16   18 ar   
    36   17   44 1    
    37   17   45 1    
    38   17   46 1    
    39   18   19 2    
    40   20   21 1    
    41   20   47 1    
    42   21   26 ar   
    43   21   22 ar   
    44   22   23 ar   
    45   22   48 1    
    46   23   24 ar   
    47   23   49 1    
    48   24   25 ar   
    49   25   26 ar   
    50   25   29 1    
    51   26   27 1    
    52   27   28 3    
@<TRIPOS>SUBSTRUCTURE
     1 UNK         1 GROUP             0       ****    0 ROOT    
