@<TRIPOS>MOLECULE
/home/yujie/leadopt/data/result/selection/BCL6/lig_11c.sdf:1
53   57    1
SMALL
USER_CHARGES


@<TRIPOS>ATOM
      1 C1        -21.9398    8.2047   19.9151 C.3       1 UNK         0.0000 
      2 N2        -22.3220    9.6023   19.6164 N.pl3     1 UNK         0.0000 
      3 C3        -21.7253   10.5836   20.3649 C.ar      1 UNK         0.0000 
      4 O4        -20.8831   10.3649   21.2417 O.2       1 UNK         0.0000 
      5 C5        -22.1824   11.9384   20.0465 C.ar      1 UNK         0.0000 
      6 C6        -23.0539   12.2521   19.0454 C.ar      1 UNK         0.0000 
      7 N7        -23.4953   13.5417   18.7916 N.pl3     1 UNK         0.0000 
      8 C8        -22.5638   14.6484   18.5735 C.3       1 UNK         0.0000 
      9 C9        -21.8768   15.0665   19.8885 C.3       1 UNK         0.0000 
     10 C10       -20.9540   13.9849   20.4525 C.3       1 UNK         0.0000 
     11 O11       -21.6543   12.8432   20.9176 O.3       1 UNK         0.0000 
     12 C12       -23.2696   15.8522   17.8872 C.3       1 UNK         0.0000 
     13 C13       -22.3132   16.9244   17.3226 C.3       1 UNK         0.0000 
     14 C14       -22.3951   16.2562   15.9471 C.3       1 UNK         0.0000 
     15 C15       -23.6824   15.5830   16.4255 C.3       1 UNK         0.0000 
     16 C16       -23.6414   11.1429   18.2395 C.ar      1 UNK         0.0000 
     17 C17       -24.5219   11.3703   17.1646 C.ar      1 UNK         0.0000 
     18 C18       -24.9963   10.3085   16.3907 C.ar      1 UNK         0.0000 
     19 C19       -24.6530    9.0022   16.7413 C.ar      1 UNK         0.0000 
     20 C20       -23.7921    8.7604   17.8077 C.ar      1 UNK         0.0000 
     21 C21       -23.2573    9.8211   18.5565 C.ar      1 UNK         0.0000 
     22 N22       -25.8007   10.5732   15.2713 N.pl3     1 UNK         0.0000 
     23 C23       -25.8047    9.9599   13.9980 C.ar      1 UNK         0.0000 
     24 C24       -24.6983    9.1961   13.5992 C.ar      1 UNK         0.0000 
     25 C25       -24.6710    8.6341   12.3277 C.ar      1 UNK         0.0000 
     26 N26       -25.6792    8.7902   11.4393 N.ar      1 UNK         0.0000 
     27 C27       -26.7562    9.5287   11.8073 C.ar      1 UNK         0.0000 
     28 C28       -26.8628   10.1377   13.0751 C.ar      1 UNK         0.0000 
     29 C29       -28.0597   10.9155   13.4016 C.1       1 UNK         0.0000 
     30 N30       -29.0089   11.5267   13.6481 N.1       1 UNK         0.0000 
     31 Cl31      -28.0034    9.6548   10.6092 Cl        1 UNK         0.0000 
     32 H32       -21.2344    8.0915   20.7408 H         1 UNK         0.0000 
     33 H33       -22.8240    7.6246   20.1794 H         1 UNK         0.0000 
     34 H34       -21.4750    7.7444   19.0399 H         1 UNK         0.0000 
     35 H35       -24.2250   13.5855   18.0922 H         1 UNK         0.0000 
     36 H36       -21.7906   14.2857   17.8921 H         1 UNK         0.0000 
     37 H37       -21.2784   15.9624   19.7389 H         1 UNK         0.0000 
     38 H38       -22.6256   15.3334   20.6369 H         1 UNK         0.0000 
     39 H39       -20.1955   13.6926   19.7242 H         1 UNK         0.0000 
     40 H40       -20.4109   14.3886   21.3067 H         1 UNK         0.0000 
     41 H41       -24.0639   16.2331   18.5315 H         1 UNK         0.0000 
     42 H42       -22.7484   17.9239   17.3500 H         1 UNK         0.0000 
     43 H43       -21.3275   16.9992   17.7815 H         1 UNK         0.0000 
     44 H44       -22.5047   16.9363   15.1009 H         1 UNK         0.0000 
     45 H45       -21.5792   15.5552   15.7536 H         1 UNK         0.0000 
     46 H46       -23.8380   14.5376   16.1520 H         1 UNK         0.0000 
     47 H47       -24.5872   16.1250   16.1421 H         1 UNK         0.0000 
     48 H48       -24.8104   12.3737   16.8900 H         1 UNK         0.0000 
     49 H49       -25.0465    8.1701   16.1757 H         1 UNK         0.0000 
     50 H50       -23.5426    7.7316   18.0180 H         1 UNK         0.0000 
     51 H51       -26.4448   11.3420   15.3839 H         1 UNK         0.0000 
     52 H52       -23.8455    9.0599   14.2463 H         1 UNK         0.0000 
     53 H53       -23.8237    8.0526   11.9952 H         1 UNK         0.0000 
@<TRIPOS>BOND
     1    1    2 1    
     2    1   32 1    
     3    1   33 1    
     4    1   34 1    
     5    2   21 ar   
     6    2    3 ar   
     7    3    4 2    
     8    3    5 ar   
     9    5   11 1    
    10    5    6 ar   
    11    6    7 1    
    12    6   16 ar   
    13    7    8 1    
    14    7   35 1    
    15    8    9 1    
    16    8   12 1    
    17    8   36 1    
    18    9   10 1    
    19    9   37 1    
    20    9   38 1    
    21   10   11 1    
    22   10   39 1    
    23   10   40 1    
    24   12   15 1    
    25   12   13 1    
    26   12   41 1    
    27   13   14 1    
    28   13   42 1    
    29   13   43 1    
    30   14   15 1    
    31   14   44 1    
    32   14   45 1    
    33   15   46 1    
    34   15   47 1    
    35   16   21 ar   
    36   16   17 ar   
    37   17   18 ar   
    38   17   48 1    
    39   18   19 ar   
    40   18   22 1    
    41   19   20 ar   
    42   19   49 1    
    43   20   21 ar   
    44   20   50 1    
    45   22   23 1    
    46   22   51 1    
    47   23   28 ar   
    48   23   24 ar   
    49   24   25 ar   
    50   24   52 1    
    51   25   26 ar   
    52   25   53 1    
    53   26   27 ar   
    54   27   28 ar   
    55   27   31 1    
    56   28   29 1    
    57   29   30 3    
@<TRIPOS>SUBSTRUCTURE
     1 UNK         1 GROUP             0       ****    0 ROOT    
