@<TRIPOS>MOLECULE
/home/yujie/leadopt/data/result/selection/BCL6/lig_5b.sdf:1
45   48    1
SMALL
USER_CHARGES


@<TRIPOS>ATOM
      1 C1        -23.6699   16.1530   18.7205 C.3       1 UNK         0.0000 
      2 C2        -22.8004   14.8918   18.8460 C.3       1 UNK         0.0000 
      3 C3        -22.2770   14.6671   20.2793 C.3       1 UNK         0.0000 
      4 C4        -21.5151   13.3289   20.4209 C.3       1 UNK         0.0000 
      5 C5        -22.2343   12.1735   19.6952 C.ar      1 UNK         0.0000 
      6 C6        -23.2000   12.4179   18.7650 C.ar      1 UNK         0.0000 
      7 N7        -23.5759   13.7167   18.4657 N.pl3     1 UNK         0.0000 
      8 C8        -23.8541   11.3011   18.0380 C.ar      1 UNK         0.0000 
      9 C9        -24.7515   11.5047   16.9777 C.ar      1 UNK         0.0000 
     10 C10       -25.2502   10.4277   16.2492 C.ar      1 UNK         0.0000 
     11 C11       -24.9097    9.1294   16.6264 C.ar      1 UNK         0.0000 
     12 C12       -24.0291    8.9122   17.6807 C.ar      1 UNK         0.0000 
     13 C13       -23.4676    9.9904   18.3872 C.ar      1 UNK         0.0000 
     14 N14       -22.5022    9.8072   19.4247 N.pl3     1 UNK         0.0000 
     15 C15       -22.1486    8.4198   19.7935 C.3       1 UNK         0.0000 
     16 C16       -21.8097   10.8142   20.0470 C.ar      1 UNK         0.0000 
     17 O17       -20.8869   10.6235   20.8484 O.2       1 UNK         0.0000 
     18 N18       -26.0823   10.6850   15.1516 N.pl3     1 UNK         0.0000 
     19 C19       -26.1150   10.0915   13.8721 C.ar      1 UNK         0.0000 
     20 C20       -25.0274    9.3169   13.4381 C.ar      1 UNK         0.0000 
     21 C21       -25.0335    8.7887   12.1508 C.ar      1 UNK         0.0000 
     22 N22       -26.0499    8.9922   11.2842 N.ar      1 UNK         0.0000 
     23 C23       -27.1107    9.7334   11.6898 C.ar      1 UNK         0.0000 
     24 C24       -27.1877   10.3112   12.9735 C.ar      1 UNK         0.0000 
     25 C25       -28.3573   11.1044   13.3524 C.1       1 UNK         0.0000 
     26 N26       -29.2844   11.7283   13.6468 N.1       1 UNK         0.0000 
     27 Cl27      -28.3816    9.9045   10.5207 Cl        1 UNK         0.0000 
     28 H28       -23.0795   17.0504   18.9058 H         1 UNK         0.0000 
     29 H29       -24.4825   16.1541   19.4446 H         1 UNK         0.0000 
     30 H30       -24.1034   16.2489   17.7217 H         1 UNK         0.0000 
     31 H31       -21.9545   14.9793   18.1603 H         1 UNK         0.0000 
     32 H32       -21.6226   15.4905   20.5645 H         1 UNK         0.0000 
     33 H33       -23.1104   14.6964   20.9865 H         1 UNK         0.0000 
     34 H34       -20.5223   13.4410   19.9803 H         1 UNK         0.0000 
     35 H35       -21.3418   13.1111   21.4771 H         1 UNK         0.0000 
     36 H36       -24.2263   13.8936   17.7079 H         1 UNK         0.0000 
     37 H37       -25.0249   12.5027   16.6733 H         1 UNK         0.0000 
     38 H38       -25.3234    8.2864   16.0918 H         1 UNK         0.0000 
     39 H39       -23.7775    7.8904   17.9203 H         1 UNK         0.0000 
     40 H40       -21.4461    8.3409   20.6245 H         1 UNK         0.0000 
     41 H41       -21.7020    7.9052   18.9436 H         1 UNK         0.0000 
     42 H42       -23.0426    7.8741   20.0934 H         1 UNK         0.0000 
     43 H43       -26.7303   11.4452   15.2890 H         1 UNK         0.0000 
     44 H44       -24.1709    9.1542   14.0724 H         1 UNK         0.0000 
     45 H45       -24.2037    8.2042   11.7876 H         1 UNK         0.0000 
@<TRIPOS>BOND
     1    1    2 1    
     2    1   28 1    
     3    1   29 1    
     4    1   30 1    
     5    2    7 1    
     6    2    3 1    
     7    2   31 1    
     8    3    4 1    
     9    3   32 1    
    10    3   33 1    
    11    4    5 1    
    12    4   34 1    
    13    4   35 1    
    14    5   16 ar   
    15    5    6 ar   
    16    6    7 1    
    17    6    8 ar   
    18    7   36 1    
    19    8   13 ar   
    20    8    9 ar   
    21    9   10 ar   
    22    9   37 1    
    23   10   11 ar   
    24   10   18 1    
    25   11   12 ar   
    26   11   38 1    
    27   12   13 ar   
    28   12   39 1    
    29   13   14 ar   
    30   14   15 1    
    31   14   16 ar   
    32   15   40 1    
    33   15   41 1    
    34   15   42 1    
    35   16   17 2    
    36   18   19 1    
    37   18   43 1    
    38   19   24 ar   
    39   19   20 ar   
    40   20   21 ar   
    41   20   44 1    
    42   21   22 ar   
    43   21   45 1    
    44   22   23 ar   
    45   23   24 ar   
    46   23   27 1    
    47   24   25 1    
    48   25   26 3    
@<TRIPOS>SUBSTRUCTURE
     1 UNK         1 GROUP             0       ****    0 ROOT    
