@<TRIPOS>MOLECULE
/home/yujie/leadopt/data/result/selection/BCL6/lig_2.sdf:1
38   40    1
SMALL
USER_CHARGES


@<TRIPOS>ATOM
      1 C1        -23.4174   15.1184   20.7421 C.3       1 UNK         0.0000 
      2 C2        -23.0699   14.7463   19.2928 C.3       1 UNK         0.0000 
      3 N3        -23.6543   13.4867   18.8469 N.pl3     1 UNK         0.0000 
      4 C4        -23.1840   12.2127   19.1061 C.ar      1 UNK         0.0000 
      5 C5        -22.2173   11.9308   20.0152 C.ar      1 UNK         0.0000 
      6 C6        -21.7353   10.5948   20.3092 C.ar      1 UNK         0.0000 
      7 O7        -20.8828   10.3321   21.1495 O.2       1 UNK         0.0000 
      8 N8        -22.3436    9.6295   19.5916 N.pl3     1 UNK         0.0000 
      9 C9        -23.3087    9.8105   18.5891 C.ar      1 UNK         0.0000 
     10 C10       -23.7561    8.7137   17.8565 C.ar      1 UNK         0.0000 
     11 C11       -24.6460    8.9049   16.7992 C.ar      1 UNK         0.0000 
     12 C12       -25.0816   10.1906   16.4561 C.ar      1 UNK         0.0000 
     13 C13       -24.6724   11.2813   17.2284 C.ar      1 UNK         0.0000 
     14 C14       -23.7772   11.1064   18.2970 C.ar      1 UNK         0.0000 
     15 N15       -25.9043   10.4217   15.3412 N.pl3     1 UNK         0.0000 
     16 C16       -25.8689    9.8606   14.0444 C.ar      1 UNK         0.0000 
     17 C17       -24.7567    9.1046   13.6454 C.ar      1 UNK         0.0000 
     18 C18       -24.7027    8.5859   12.3566 C.ar      1 UNK         0.0000 
     19 N19       -25.6818    8.7871   11.4487 N.ar      1 UNK         0.0000 
     20 C20       -26.7578    9.5286   11.8101 C.ar      1 UNK         0.0000 
     21 C21       -26.8950   10.0906   13.0967 C.ar      1 UNK         0.0000 
     22 C22       -28.0830   10.8865   13.4104 C.1       1 UNK         0.0000 
     23 N23       -29.0251   11.5145   13.6470 N.1       1 UNK         0.0000 
     24 Cl24      -27.9647    9.7251   10.5786 Cl        1 UNK         0.0000 
     25 H25       -22.9065   16.0360   21.0346 H         1 UNK         0.0000 
     26 H26       -24.4833   15.2942   20.8625 H         1 UNK         0.0000 
     27 H27       -23.1269   14.3409   21.4490 H         1 UNK         0.0000 
     28 H28       -21.9871   14.7037   19.1627 H         1 UNK         0.0000 
     29 H29       -23.4219   15.5347   18.6256 H         1 UNK         0.0000 
     30 H30       -21.7671   12.7237   20.5891 H         1 UNK         0.0000 
     31 H31       -23.4019    7.7196   18.0864 H         1 UNK         0.0000 
     32 H32       -24.9832    8.0504   16.2312 H         1 UNK         0.0000 
     33 H33       -25.0004   12.2701   16.9501 H         1 UNK         0.0000 
     34 H34       -26.5985   11.1437   15.4752 H         1 UNK         0.0000 
     35 H35       -23.9219    8.9351   14.3067 H         1 UNK         0.0000 
     36 H36       -23.8532    8.0044   12.0277 H         1 UNK         0.0000 
     37 H37       -24.3797   13.6163   18.1533 H         1 UNK         0.0000 
     38 H38       -22.0015    8.7079   19.8085 H         1 UNK         0.0000 
@<TRIPOS>BOND
     1    1    2 1    
     2    1   25 1    
     3    1   26 1    
     4    1   27 1    
     5    2    3 1    
     6    2   28 1    
     7    2   29 1    
     8    3    4 1    
     9    3   37 1    
    10    4   14 ar   
    11    4    5 ar   
    12    5    6 ar   
    13    5   30 1    
    14    6    7 2    
    15    6    8 ar   
    16    8    9 ar   
    17    8   38 1    
    18    9   14 ar   
    19    9   10 ar   
    20   10   11 ar   
    21   10   31 1    
    22   11   12 ar   
    23   11   32 1    
    24   12   13 ar   
    25   12   15 1    
    26   13   14 ar   
    27   13   33 1    
    28   15   16 1    
    29   15   34 1    
    30   16   21 ar   
    31   16   17 ar   
    32   17   18 ar   
    33   17   35 1    
    34   18   19 ar   
    35   18   36 1    
    36   19   20 ar   
    37   20   21 ar   
    38   20   24 1    
    39   21   22 1    
    40   22   23 3    
@<TRIPOS>SUBSTRUCTURE
     1 UNK         1 GROUP             0       ****    0 ROOT    
