/home/yujie/leadopt/data/result/selection/BCL6/lig_14.sdf:1
                    3D
 Schrodinger Suite 2020-3.
 50 54  0  0  1  0            999 V2000
  -22.3880    8.4536   19.7360 C   0  0  0  0  0  0
  -22.6360    9.8526   19.3292 N   0  0  0  0  0  0
  -21.9020   10.8223   19.9652 C   0  0  0  0  0  0
  -21.0667   10.5944   20.8475 O   0  0  0  0  0  0
  -22.1709   12.1803   19.4918 C   0  0  0  0  0  0
  -23.0345   12.5026   18.4859 C   0  0  0  0  0  0
  -23.2815   13.8031   18.0588 N   0  0  0  0  0  0
  -22.9849   15.0208   18.8131 C   0  0  2  0  0  0
  -23.8325   16.1917   18.2386 C   0  0  0  0  0  0
  -23.3485   17.6213   18.1541 C   0  0  0  0  0  0
  -23.5362   16.7979   16.8887 C   0  0  0  0  0  0
  -21.4600   15.2938   19.0051 C   0  0  0  0  0  0
  -20.9039   15.8424   17.9235 F   0  0  0  0  0  0
  -21.3077   16.1725   19.9985 F   0  0  0  0  0  0
  -20.6513   14.0305   19.3449 C   0  0  0  0  0  0
  -21.3695   13.0817   20.1212 O   0  0  0  0  0  0
  -23.7788   11.3990   17.8160 C   0  0  0  0  0  0
  -24.6232   11.6283   16.7192 C   0  0  0  0  0  0
  -25.2735   10.5784   16.0683 C   0  0  0  0  0  0
  -25.1287    9.2870   16.5689 C   0  0  0  0  0  0
  -24.2797    9.0363   17.6464 C   0  0  0  0  0  0
  -23.5748   10.0807   18.2726 C   0  0  0  0  0  0
  -26.0802   10.7814   14.9359 N   0  0  0  0  0  0
  -26.0489   11.7833   13.9391 C   0  0  0  0  0  0
  -24.8748   12.5182   13.7238 C   0  0  0  0  0  0
  -24.8516   13.5106   12.7494 C   0  0  0  0  0  0
  -25.9220   13.7954   11.9756 N   0  0  0  0  0  0
  -27.0570   13.0733   12.1480 C   0  0  0  0  0  0
  -27.1657   12.0489   13.1121 C   0  0  0  0  0  0
  -28.4210   11.3089   13.2465 C   0  0  0  0  0  0
  -29.4149   10.7284   13.3474 N   0  0  0  0  0  0
  -28.3703   13.4981   11.0969 Cl  0  0  0  0  0  0
  -23.3800   14.8337   19.8146 H   0  0  0  0  0  0
  -21.5885    8.3319   20.4706 H   0  0  0  0  0  0
  -23.2833    8.0202   20.1794 H   0  0  0  0  0  0
  -22.1076    7.8471   18.8720 H   0  0  0  0  0  0
  -24.1254   13.9159   17.5109 H   0  0  0  0  0  0
  -24.8890   16.0444   18.4478 H   0  0  0  0  0  0
  -24.0598   18.4151   18.3826 H   0  0  0  0  0  0
  -22.3397   17.8827   18.4724 H   0  0  0  0  0  0
  -22.6647   16.4519   16.3331 H   0  0  0  0  0  0
  -24.3779   17.0172   16.2310 H   0  0  0  0  0  0
  -20.2726   13.5601   18.4346 H   0  0  0  0  0  0
  -19.7639   14.3095   19.9146 H   0  0  0  0  0  0
  -24.7848   12.6346   16.3664 H   0  0  0  0  0  0
  -25.6399    8.4623   16.0937 H   0  0  0  0  0  0
  -24.1662    8.0136   17.9698 H   0  0  0  0  0  0
  -26.8188   10.1009   14.8249 H   0  0  0  0  0  0
  -23.9773   12.3222   14.2869 H   0  0  0  0  0  0
  -23.9593   14.0949   12.5728 H   0  0  0  0  0  0
  1  2  1  0  0  0
  1 34  1  0  0  0
  1 35  1  0  0  0
  1 36  1  0  0  0
  2 22  1  0  0  0
  2  3  1  0  0  0
  3  4  2  0  0  0
  3  5  1  0  0  0
  5 16  1  0  0  0
  5  6  2  0  0  0
  6  7  1  0  0  0
  6 17  1  0  0  0
  7  8  1  0  0  0
  7 37  1  0  0  0
  8 33  1  0  0  0
  8  9  1  0  0  0
  8 12  1  0  0  0
  9 11  1  0  0  0
  9 10  1  0  0  0
  9 38  1  0  0  0
 10 11  1  0  0  0
 10 39  1  0  0  0
 10 40  1  0  0  0
 11 41  1  0  0  0
 11 42  1  0  0  0
 12 13  1  0  0  0
 12 14  1  0  0  0
 12 15  1  0  0  0
 15 16  1  0  0  0
 15 43  1  0  0  0
 15 44  1  0  0  0
 17 22  2  0  0  0
 17 18  1  0  0  0
 18 19  2  0  0  0
 18 45  1  0  0  0
 19 20  1  0  0  0
 19 23  1  0  0  0
 20 21  2  0  0  0
 20 46  1  0  0  0
 21 22  1  0  0  0
 21 47  1  0  0  0
 23 24  1  0  0  0
 23 48  1  0  0  0
 24 29  1  0  0  0
 24 25  2  0  0  0
 25 26  1  0  0  0
 25 49  1  0  0  0
 26 27  2  0  0  0
 26 50  1  0  0  0
 27 28  1  0  0  0
 28 29  2  0  0  0
 28 32  1  0  0  0
 29 30  1  0  0  0
 30 31  3  0  0  0
M  END
> <s_m_source_file>
/home/yujie/leadopt/data/result/selection/BCL6/lig_14.sdf

> <i_m_source_file_index>
1

> <i_lp_mmshare_version>
51139

> <i_f3d_flags>
0

> <s_epik_input>
W0NIMl0xW0NIMl1bQ0hdMVtDQEhdKEMoRikoRilbQ0gyXU8yKVtOSF1jKGMyMyljNGMobihbQ0gzXSljMz1PKVtjSF1bY0hdYyhbY0hdNClbTkhdYzVbY0hdW2NIXW5jKENsKWM1QyNO

> <s_epik_cmdline>
J2VwaWtfcHl0aG9uJywgJy1waHQnLCAnMi4wJywgJy1waCcsICc3LjAnLCAnLXRuJywgJzgnLCAnLW1hJywgJzIwMCcsICctaW1hZScsICc8aW5maWxlLm1hZT4nLCAnLW9tYWUnLCAnPG91dGZpbGUubWFlPic=

> <r_epik_Ionization_Penalty>
  0.0016

> <r_epik_Ionization_Penalty_Charging>
  0.0000

> <r_epik_Ionization_Penalty_Neutral>
  0.0016

> <r_epik_State_Penalty>
  0.0010

> <r_epik_Charging_Adjusted_Penalty>
0.00100151

> <i_epik_Tot_Q>
0

> <i_epik_Tot_abs_Q>
0

> <s_lp_Force_Field>
OPLS3e

> <r_lp_Energy>
63.8596

> <b_lp_Chiralities_Consistent>
1

> <s_lp_Variant>
/home/yujie/leadopt/data/result/selection/BCL6/lig_14.sdf:1-1

> <s_i_glide_gridfile>
glide-grid_BCL6

> <i_i_glide_lignum>
1

> <i_i_glide_rotatable_bonds>
3

> <r_i_docking_score>
-4.67903503924846

> <r_i_glide_ligand_efficiency>
-0.146219844976514

> <r_i_glide_ligand_efficiency_sa>
-0.464219070932405

> <r_i_glide_ligand_efficiency_ln>
-1.04776349096574

> <r_i_glide_gscore>
-4.68003052624846

> <r_i_glide_lipo>
-1.43151399127598

> <r_i_glide_hbond>
-0.35329506980301

> <r_i_glide_metal>
-0

> <r_i_glide_rewards>
-0.811579693482409

> <r_i_glide_evdw>
-31.4028930664062

> <r_i_glide_ecoul>
-5.20757341384888

> <r_i_glide_erotb>
0.287759185170002

> <r_i_glide_esite>
-0.0201202914594207

> <r_i_glide_emodel>
-42.051874797146

> <r_i_glide_energy>
-36.6104664802551

> <r_i_glide_einternal>
9.2728214263916

> <i_i_glide_confnum>
16

> <i_i_glide_posenum>
106

> <r_i_glide_eff_state_penalty>
0.000995487

$$$$
