@<TRIPOS>MOLECULE
/home/yujie/leadopt/data/result/selection/BCL6/lig_11a.sdf:1
50   54    1
SMALL
USER_CHARGES


@<TRIPOS>ATOM
      1 C1        -22.0167    8.1919   19.5944 C.3       1 UNK         0.0000 
      2 N2        -22.4162    9.5893   19.3247 N.pl3     1 UNK         0.0000 
      3 C3        -21.7809   10.5681   20.0487 C.ar      1 UNK         0.0000 
      4 O4        -20.8829   10.3480   20.8722 O.2       1 UNK         0.0000 
      5 C5        -22.2661   11.9223   19.7820 C.ar      1 UNK         0.0000 
      6 C6        -23.1820   12.2446   18.8233 C.ar      1 UNK         0.0000 
      7 N7        -23.6824   13.5232   18.6408 N.pl3     1 UNK         0.0000 
      8 C8        -22.8233   14.6864   18.4652 C.3       1 UNK         0.0000 
      9 C9        -22.0918   15.0700   19.7610 C.3       1 UNK         0.0000 
     10 C10       -21.0953   14.0012   20.2167 C.3       1 UNK         0.0000 
     11 O11       -21.7247   12.8101   20.6627 O.3       1 UNK         0.0000 
     12 C12       -23.6279   15.8787   17.9196 C.3       1 UNK         0.0000 
     13 C13       -22.9292   16.9690   17.1401 C.3       1 UNK         0.0000 
     14 C14       -23.8608   16.0010   16.4344 C.3       1 UNK         0.0000 
     15 C15       -23.7718   11.1462   18.0058 C.ar      1 UNK         0.0000 
     16 C16       -24.6582   11.3930   16.9441 C.ar      1 UNK         0.0000 
     17 C17       -25.1550   10.3476   16.1663 C.ar      1 UNK         0.0000 
     18 C18       -24.8071    9.0353   16.4851 C.ar      1 UNK         0.0000 
     19 C19       -23.9303    8.7710   17.5339 C.ar      1 UNK         0.0000 
     20 C20       -23.3812    9.8187   18.2955 C.ar      1 UNK         0.0000 
     21 N21       -25.9959   10.6374   15.0811 N.pl3     1 UNK         0.0000 
     22 C22       -26.0524   10.0530   13.7969 C.ar      1 UNK         0.0000 
     23 C23       -24.9573    9.3114   13.3307 C.ar      1 UNK         0.0000 
     24 C24       -24.9823    8.7804   12.0456 C.ar      1 UNK         0.0000 
     25 N25       -26.0276    8.9491   11.2085 N.ar      1 UNK         0.0000 
     26 C26       -27.0971    9.6611   11.6405 C.ar      1 UNK         0.0000 
     27 C27       -27.1539   10.2396   12.9257 C.ar      1 UNK         0.0000 
     28 C28       -28.3409   10.9959   13.3304 C.1       1 UNK         0.0000 
     29 N29       -29.2822   11.5880   13.6464 N.1       1 UNK         0.0000 
     30 Cl30      -28.3996    9.8078   10.5036 Cl        1 UNK         0.0000 
     31 H31       -21.2896    8.0734   20.4011 H         1 UNK         0.0000 
     32 H32       -22.8872    7.5963   19.8749 H         1 UNK         0.0000 
     33 H33       -21.5719    7.7459   18.7027 H         1 UNK         0.0000 
     34 H34       -24.4336   13.5687   17.9632 H         1 UNK         0.0000 
     35 H35       -22.0718   14.4215   17.7186 H         1 UNK         0.0000 
     36 H36       -21.5491   16.0048   19.6105 H         1 UNK         0.0000 
     37 H37       -22.8132   15.2577   20.5573 H         1 UNK         0.0000 
     38 H38       -20.3713   13.7763   19.4319 H         1 UNK         0.0000 
     39 H39       -20.5187   14.3886   21.0572 H         1 UNK         0.0000 
     40 H40       -24.4411   16.1793   18.5840 H         1 UNK         0.0000 
     41 H41       -23.2524   17.9981   17.2917 H         1 UNK         0.0000 
     42 H42       -21.8538   16.8913   16.9727 H         1 UNK         0.0000 
     43 H43       -23.4456   15.2377   15.7752 H         1 UNK         0.0000 
     44 H44       -24.8377   16.3475   16.0985 H         1 UNK         0.0000 
     45 H45       -24.9265   12.4074   16.6805 H         1 UNK         0.0000 
     46 H46       -25.2133    8.2144   15.9143 H         1 UNK         0.0000 
     47 H47       -23.6764    7.7399   17.7266 H         1 UNK         0.0000 
     48 H48       -26.6280   11.4133   15.2240 H         1 UNK         0.0000 
     49 H49       -24.0764    9.1714   13.9378 H         1 UNK         0.0000 
     50 H50       -24.1464    8.2149   11.6610 H         1 UNK         0.0000 
@<TRIPOS>BOND
     1    1    2 1    
     2    1   31 1    
     3    1   32 1    
     4    1   33 1    
     5    2   20 ar   
     6    2    3 ar   
     7    3    4 2    
     8    3    5 ar   
     9    5   11 1    
    10    5    6 ar   
    11    6    7 1    
    12    6   15 ar   
    13    7    8 1    
    14    7   34 1    
    15    8    9 1    
    16    8   12 1    
    17    8   35 1    
    18    9   10 1    
    19    9   36 1    
    20    9   37 1    
    21   10   11 1    
    22   10   38 1    
    23   10   39 1    
    24   12   14 1    
    25   12   13 1    
    26   12   40 1    
    27   13   14 1    
    28   13   41 1    
    29   13   42 1    
    30   14   43 1    
    31   14   44 1    
    32   15   20 ar   
    33   15   16 ar   
    34   16   17 ar   
    35   16   45 1    
    36   17   18 ar   
    37   17   21 1    
    38   18   19 ar   
    39   18   46 1    
    40   19   20 ar   
    41   19   47 1    
    42   21   22 1    
    43   21   48 1    
    44   22   27 ar   
    45   22   23 ar   
    46   23   24 ar   
    47   23   49 1    
    48   24   25 ar   
    49   24   50 1    
    50   25   26 ar   
    51   26   27 ar   
    52   26   30 1    
    53   27   28 1    
    54   28   29 3    
@<TRIPOS>SUBSTRUCTURE
     1 UNK         1 GROUP             0       ****    0 ROOT    
