@<TRIPOS>MOLECULE
/home/yujie/leadopt/data/result/selection/BCL6/lig_8.sdf:1
46   49    1
SMALL
USER_CHARGES


@<TRIPOS>ATOM
      1 C1        -23.6490   15.9360   18.2433 C.3       1 UNK         0.0000 
      2 C2        -23.0411   14.7915   19.0718 C.3       1 UNK         0.0000 
      3 C3        -23.0919   15.0974   20.5856 C.3       1 UNK         0.0000 
      4 O4        -22.6860   14.0538   21.4665 O.3       1 UNK         0.0000 
      5 C5        -21.7171   13.1360   20.9752 C.3       1 UNK         0.0000 
      6 C6        -22.2660   12.0315   20.0474 C.ar      1 UNK         0.0000 
      7 C7        -23.2024   12.2631   19.0778 C.ar      1 UNK         0.0000 
      8 N8        -23.6828   13.5243   18.7564 N.pl3     1 UNK         0.0000 
      9 C9        -23.7473   11.1252   18.2785 C.ar      1 UNK         0.0000 
     10 C10       -24.6469   11.3056   17.2102 C.ar      1 UNK         0.0000 
     11 C11       -25.0620   10.2282   16.4289 C.ar      1 UNK         0.0000 
     12 C12       -24.6435    8.9426   16.7695 C.ar      1 UNK         0.0000 
     13 C13       -23.7679    8.7431   17.8329 C.ar      1 UNK         0.0000 
     14 C14       -23.2883    9.8292   18.5864 C.ar      1 UNK         0.0000 
     15 N15       -22.3429    9.6647   19.6408 N.pl3     1 UNK         0.0000 
     16 C16       -21.9078    8.2848   19.9539 C.3       1 UNK         0.0000 
     17 C17       -21.7617   10.6835   20.3508 C.ar      1 UNK         0.0000 
     18 O18       -20.8828   10.4851   21.1958 O.2       1 UNK         0.0000 
     19 N19       -25.8804   10.4671   15.3133 N.pl3     1 UNK         0.0000 
     20 C20       -25.8544    9.8938   14.0217 C.ar      1 UNK         0.0000 
     21 C21       -24.7405    9.1414   13.6200 C.ar      1 UNK         0.0000 
     22 C22       -24.6940    8.6102   12.3363 C.ar      1 UNK         0.0000 
     23 N23       -25.6837    8.7937   11.4363 N.ar      1 UNK         0.0000 
     24 C24       -26.7633    9.5291   11.8012 C.ar      1 UNK         0.0000 
     25 C25       -26.8917   10.1057   13.0825 C.ar      1 UNK         0.0000 
     26 C26       -28.0815   10.8961   13.4034 C.1       1 UNK         0.0000 
     27 N27       -29.0244   11.5205   13.6471 N.1       1 UNK         0.0000 
     28 Cl28      -27.9846    9.7025   10.5810 Cl        1 UNK         0.0000 
     29 H29       -21.9972   14.7001   18.7678 H         1 UNK         0.0000 
     30 H30       -23.1495   16.8831   18.4503 H         1 UNK         0.0000 
     31 H31       -24.7112   16.0723   18.4474 H         1 UNK         0.0000 
     32 H32       -23.5472   15.7443   17.1742 H         1 UNK         0.0000 
     33 H33       -22.4609   15.9627   20.7905 H         1 UNK         0.0000 
     34 H34       -24.0999   15.3890   20.8823 H         1 UNK         0.0000 
     35 H35       -20.8909   13.6532   20.4841 H         1 UNK         0.0000 
     36 H36       -21.2798   12.7323   21.8883 H         1 UNK         0.0000 
     37 H37       -24.2789   13.5851   17.9426 H         1 UNK         0.0000 
     38 H38       -24.9920   12.2928   16.9411 H         1 UNK         0.0000 
     39 H39       -24.9899    8.0919   16.2018 H         1 UNK         0.0000 
     40 H40       -23.4604    7.7295   18.0401 H         1 UNK         0.0000 
     41 H41       -21.1926    8.2084   20.7750 H         1 UNK         0.0000 
     42 H42       -21.4351    7.8297   19.0828 H         1 UNK         0.0000 
     43 H43       -22.7671    7.6751   20.2350 H         1 UNK         0.0000 
     44 H44       -26.5678   11.1952   15.4462 H         1 UNK         0.0000 
     45 H45       -23.8985    8.9853   14.2759 H         1 UNK         0.0000 
     46 H46       -23.8426    8.0322   12.0054 H         1 UNK         0.0000 
@<TRIPOS>BOND
     1    1    2 1    
     2    1   30 1    
     3    1   31 1    
     4    1   32 1    
     5    2   29 1    
     6    2    8 1    
     7    2    3 1    
     8    3    4 1    
     9    3   33 1    
    10    3   34 1    
    11    4    5 1    
    12    5    6 1    
    13    5   35 1    
    14    5   36 1    
    15    6   17 ar   
    16    6    7 ar   
    17    7    8 1    
    18    7    9 ar   
    19    8   37 1    
    20    9   14 ar   
    21    9   10 ar   
    22   10   11 ar   
    23   10   38 1    
    24   11   12 ar   
    25   11   19 1    
    26   12   13 ar   
    27   12   39 1    
    28   13   14 ar   
    29   13   40 1    
    30   14   15 ar   
    31   15   16 1    
    32   15   17 ar   
    33   16   41 1    
    34   16   42 1    
    35   16   43 1    
    36   17   18 2    
    37   19   20 1    
    38   19   44 1    
    39   20   25 ar   
    40   20   21 ar   
    41   21   22 ar   
    42   21   45 1    
    43   22   23 ar   
    44   22   46 1    
    45   23   24 ar   
    46   24   25 ar   
    47   24   28 1    
    48   25   26 1    
    49   26   27 3    
@<TRIPOS>SUBSTRUCTURE
     1 UNK         1 GROUP             0       ****    0 ROOT    
