@<TRIPOS>MOLECULE
/home/yujie/leadopt/data/result/selection/BCL6/lig_9r.sdf:1
46   49    1
SMALL
USER_CHARGES


@<TRIPOS>ATOM
      1 C1        -23.4521   15.7950   18.1983 C.3       1 UNK         0.0000 
      2 C2        -22.9318   14.6067   19.0197 C.3       1 UNK         0.0000 
      3 C3        -22.9147   14.9352   20.5261 C.3       1 UNK         0.0000 
      4 C4        -22.7161   13.7144   21.4333 C.3       1 UNK         0.0000 
      5 O5        -21.8366   12.7488   20.8669 O.3       1 UNK         0.0000 
      6 C6        -22.3096   11.8342   19.9713 C.ar      1 UNK         0.0000 
      7 C7        -23.2371   12.1106   19.0085 C.ar      1 UNK         0.0000 
      8 N8        -23.6829   13.3934   18.7197 N.pl3     1 UNK         0.0000 
      9 C9        -23.7569   10.9884   18.1764 C.ar      1 UNK         0.0000 
     10 C10       -24.6922   11.1846   17.1449 C.ar      1 UNK         0.0000 
     11 C11       -25.0966   10.1258   16.3343 C.ar      1 UNK         0.0000 
     12 C12       -24.6399    8.8393   16.6197 C.ar      1 UNK         0.0000 
     13 C13       -23.7310    8.6226   17.6511 C.ar      1 UNK         0.0000 
     14 C14       -23.2564    9.6924   18.4300 C.ar      1 UNK         0.0000 
     15 N15       -22.2782    9.5116   19.4590 N.pl3     1 UNK         0.0000 
     16 C16       -21.7769    8.1402   19.6928 C.3       1 UNK         0.0000 
     17 C17       -21.7460   10.5102   20.2343 C.ar      1 UNK         0.0000 
     18 O18       -20.8826   10.3282   21.1004 O.2       1 UNK         0.0000 
     19 N19       -25.9404   10.3872   15.2434 N.pl3     1 UNK         0.0000 
     20 C20       -25.9311    9.8501   13.9353 C.ar      1 UNK         0.0000 
     21 C21       -24.8212    9.1125   13.4946 C.ar      1 UNK         0.0000 
     22 C22       -24.7980    8.6084   12.1993 C.ar      1 UNK         0.0000 
     23 N23       -25.8065    8.8038   11.3232 N.ar      1 UNK         0.0000 
     24 C24       -26.8803    9.5278   11.7243 C.ar      1 UNK         0.0000 
     25 C25       -26.9835   10.0831   13.0180 C.ar      1 UNK         0.0000 
     26 C26       -28.1609   10.8777   13.3738 C.1       1 UNK         0.0000 
     27 N27       -29.0933   11.5064   13.6470 N.1       1 UNK         0.0000 
     28 Cl28      -28.1270    9.7207   10.5330 Cl        1 UNK         0.0000 
     29 H29       -22.8543   16.6897   18.3736 H         1 UNK         0.0000 
     30 H30       -24.4868   16.0328   18.4471 H         1 UNK         0.0000 
     31 H31       -23.4138   15.5837   17.1292 H         1 UNK         0.0000 
     32 H32       -21.9039   14.4151   18.7054 H         1 UNK         0.0000 
     33 H33       -22.1198   15.6575   20.7161 H         1 UNK         0.0000 
     34 H34       -23.8446   15.4279   20.8164 H         1 UNK         0.0000 
     35 H35       -22.3134   14.0294   22.3961 H         1 UNK         0.0000 
     36 H36       -23.6771   13.2464   21.6553 H         1 UNK         0.0000 
     37 H37       -24.2457   13.4923   17.8857 H         1 UNK         0.0000 
     38 H38       -25.0702   12.1720   16.9270 H         1 UNK         0.0000 
     39 H39       -24.9816    7.9999   16.0317 H         1 UNK         0.0000 
     40 H40       -23.3962    7.6098   17.8147 H         1 UNK         0.0000 
     41 H41       -21.0096    8.0628   20.4651 H         1 UNK         0.0000 
     42 H42       -21.3378    7.7370   18.7801 H         1 UNK         0.0000 
     43 H43       -22.5957    7.4866   19.9942 H         1 UNK         0.0000 
     44 H44       -26.6130   11.1250   15.4012 H         1 UNK         0.0000 
     45 H45       -23.9650    8.9477   14.1288 H         1 UNK         0.0000 
     46 H46       -23.9505    8.0417   11.8401 H         1 UNK         0.0000 
@<TRIPOS>BOND
     1    1    2 1    
     2    1   29 1    
     3    1   30 1    
     4    1   31 1    
     5    2    8 1    
     6    2    3 1    
     7    2   32 1    
     8    3    4 1    
     9    3   33 1    
    10    3   34 1    
    11    4    5 1    
    12    4   35 1    
    13    4   36 1    
    14    5    6 1    
    15    6   17 ar   
    16    6    7 ar   
    17    7    8 1    
    18    7    9 ar   
    19    8   37 1    
    20    9   14 ar   
    21    9   10 ar   
    22   10   11 ar   
    23   10   38 1    
    24   11   12 ar   
    25   11   19 1    
    26   12   13 ar   
    27   12   39 1    
    28   13   14 ar   
    29   13   40 1    
    30   14   15 ar   
    31   15   16 1    
    32   15   17 ar   
    33   16   41 1    
    34   16   42 1    
    35   16   43 1    
    36   17   18 2    
    37   19   20 1    
    38   19   44 1    
    39   20   25 ar   
    40   20   21 ar   
    41   21   22 ar   
    42   21   45 1    
    43   22   23 ar   
    44   22   46 1    
    45   23   24 ar   
    46   24   25 ar   
    47   24   28 1    
    48   25   26 1    
    49   26   27 3    
@<TRIPOS>SUBSTRUCTURE
     1 UNK         1 GROUP             0       ****    0 ROOT    
