@<TRIPOS>MOLECULE
/home/yujie/leadopt/data/result/selection/BCL6/lig_4.sdf:1
44   46    1
SMALL
USER_CHARGES


@<TRIPOS>ATOM
      1 C1        -23.6342   16.0078   18.0289 C.3       1 UNK         0.0000 
      2 C2        -22.8704   14.6805   18.0851 C.3       1 UNK         0.0000 
      3 N3        -23.6827   13.5945   18.6161 N.pl3     1 UNK         0.0000 
      4 C4        -23.1917   12.3536   18.9786 C.ar      1 UNK         0.0000 
      5 C5        -22.2628   12.1590   19.9554 C.ar      1 UNK         0.0000 
      6 C6        -21.7117   13.3001   20.8250 C.3       1 UNK         0.0000 
      7 C7        -21.7695   10.8208   20.3058 C.ar      1 UNK         0.0000 
      8 O8        -20.8828   10.6612   21.1511 O.2       1 UNK         0.0000 
      9 N9        -22.3711    9.7810   19.6413 N.pl3     1 UNK         0.0000 
     10 C10       -21.9501    8.4112   20.0092 C.3       1 UNK         0.0000 
     11 C11       -23.3246    9.9151   18.5858 C.ar      1 UNK         0.0000 
     12 C12       -23.8175    8.8052   17.8767 C.ar      1 UNK         0.0000 
     13 C13       -24.7016    8.9701   16.8136 C.ar      1 UNK         0.0000 
     14 C14       -25.1173   10.2457   16.4342 C.ar      1 UNK         0.0000 
     15 C15       -24.6856   11.3489   17.1657 C.ar      1 UNK         0.0000 
     16 C16       -23.7758   11.2033   18.2293 C.ar      1 UNK         0.0000 
     17 N17       -25.9486   10.4504   15.3229 N.pl3     1 UNK         0.0000 
     18 C18       -25.9027    9.8799   14.0321 C.ar      1 UNK         0.0000 
     19 C19       -24.7803    9.1345   13.6428 C.ar      1 UNK         0.0000 
     20 C20       -24.7133    8.6143   12.3551 C.ar      1 UNK         0.0000 
     21 N21       -25.6901    8.8033   11.4418 N.ar      1 UNK         0.0000 
     22 C22       -26.7789    9.5286   11.7981 C.ar      1 UNK         0.0000 
     23 C23       -26.9298   10.0915   13.0833 C.ar      1 UNK         0.0000 
     24 C24       -28.1307   10.8667   13.4015 C.1       1 UNK         0.0000 
     25 N25       -29.0818   11.4780   13.6470 N.1       1 UNK         0.0000 
     26 Cl26      -27.9850    9.7087   10.5635 Cl        1 UNK         0.0000 
     27 H27       -22.9876   16.8116   17.6763 H         1 UNK         0.0000 
     28 H28       -24.4826   15.9509   17.3478 H         1 UNK         0.0000 
     29 H29       -24.0100   16.2952   19.0124 H         1 UNK         0.0000 
     30 H30       -21.9689   14.8109   18.6826 H         1 UNK         0.0000 
     31 H31       -22.5281   14.3997   17.0882 H         1 UNK         0.0000 
     32 H32       -24.5878   13.6078   18.1627 H         1 UNK         0.0000 
     33 H33       -22.3365   14.1910   20.7888 H         1 UNK         0.0000 
     34 H34       -21.6550   13.0275   21.8782 H         1 UNK         0.0000 
     35 H35       -20.7088   13.5745   20.4954 H         1 UNK         0.0000 
     36 H36       -21.2362    8.3616   20.8333 H         1 UNK         0.0000 
     37 H37       -22.8169    7.8238   20.3159 H         1 UNK         0.0000 
     38 H38       -21.4827    7.9145   19.1580 H         1 UNK         0.0000 
     39 H39       -23.5121    7.7989   18.1183 H         1 UNK         0.0000 
     40 H40       -25.0573    8.1038   16.2762 H         1 UNK         0.0000 
     41 H41       -25.0199   12.3280   16.8582 H         1 UNK         0.0000 
     42 H42       -26.6562   11.1585   15.4552 H         1 UNK         0.0000 
     43 H43       -23.9490    8.9754   14.3111 H         1 UNK         0.0000 
     44 H44       -23.8554    8.0418   12.0319 H         1 UNK         0.0000 
@<TRIPOS>BOND
     1    1    2 1    
     2    1   27 1    
     3    1   28 1    
     4    1   29 1    
     5    2    3 1    
     6    2   30 1    
     7    2   31 1    
     8    3    4 1    
     9    3   32 1    
    10    4   16 ar   
    11    4    5 ar   
    12    5    6 1    
    13    5    7 ar   
    14    6   33 1    
    15    6   34 1    
    16    6   35 1    
    17    7    8 2    
    18    7    9 ar   
    19    9   10 1    
    20    9   11 ar   
    21   10   36 1    
    22   10   37 1    
    23   10   38 1    
    24   11   16 ar   
    25   11   12 ar   
    26   12   13 ar   
    27   12   39 1    
    28   13   14 ar   
    29   13   40 1    
    30   14   15 ar   
    31   14   17 1    
    32   15   16 ar   
    33   15   41 1    
    34   17   18 1    
    35   17   42 1    
    36   18   23 ar   
    37   18   19 ar   
    38   19   20 ar   
    39   19   43 1    
    40   20   21 ar   
    41   20   44 1    
    42   21   22 ar   
    43   22   23 ar   
    44   22   26 1    
    45   23   24 1    
    46   24   25 3    
@<TRIPOS>SUBSTRUCTURE
     1 UNK         1 GROUP             0       ****    0 ROOT    
