@<TRIPOS>MOLECULE
/home/yujie/leadopt/data/result/selection/BCL6/lig_12a.sdf:1
50   54    1
SMALL
USER_CHARGES


@<TRIPOS>ATOM
      1 C1        -22.0168    8.1904   19.5939 C.3       1 UNK         0.0000 
      2 N2        -22.4177    9.5882   19.3254 N.pl3     1 UNK         0.0000 
      3 C3        -21.7821   10.5669   20.0494 C.ar      1 UNK         0.0000 
      4 O4        -20.8842   10.3467   20.8732 O.2       1 UNK         0.0000 
      5 C5        -22.2665   11.9216   19.7826 C.ar      1 UNK         0.0000 
      6 C6        -23.1834   12.2435   18.8246 C.ar      1 UNK         0.0000 
      7 N7        -23.6823   13.5228   18.6428 N.pl3     1 UNK         0.0000 
      8 C8        -22.8226   14.6851   18.4651 C.3       1 UNK         0.0000 
      9 C9        -22.0908   15.0700   19.7600 C.3       1 UNK         0.0000 
     10 C10       -21.0953   14.0010   20.2167 C.3       1 UNK         0.0000 
     11 O11       -21.7238   12.8098   20.6624 O.3       1 UNK         0.0000 
     12 C12       -23.6292   15.8761   17.9203 C.3       1 UNK         0.0000 
     13 C13       -22.9307   16.9671   17.1424 C.3       1 UNK         0.0000 
     14 C14       -23.8611   15.9997   16.4348 C.3       1 UNK         0.0000 
     15 C15       -23.7745   11.1445   18.0094 C.ar      1 UNK         0.0000 
     16 C16       -24.6602   11.3915   16.9478 C.ar      1 UNK         0.0000 
     17 C17       -25.1585   10.3467   16.1703 C.ar      1 UNK         0.0000 
     18 C18       -24.8115    9.0342   16.4901 C.ar      1 UNK         0.0000 
     19 C19       -23.9355    8.7696   17.5395 C.ar      1 UNK         0.0000 
     20 C20       -23.3843    9.8172   18.2991 C.ar      1 UNK         0.0000 
     21 N21       -25.9990   10.6357   15.0847 N.pl3     1 UNK         0.0000 
     22 C22       -26.0549   10.0515   13.8002 C.ar      1 UNK         0.0000 
     23 C23       -24.9597    9.3102   13.3340 C.ar      1 UNK         0.0000 
     24 C24       -24.9848    8.7790   12.0490 C.ar      1 UNK         0.0000 
     25 N25       -26.0288    8.9488   11.2111 N.ar      1 UNK         0.0000 
     26 C26       -27.0985    9.6610   11.6427 C.ar      1 UNK         0.0000 
     27 C27       -27.1554   10.2389   12.9280 C.ar      1 UNK         0.0000 
     28 C28       -28.3417   10.9970   13.3313 C.1       1 UNK         0.0000 
     29 N29       -29.2812   11.5920   13.6463 N.1       1 UNK         0.0000 
     30 Cl30      -28.3995    9.8099   10.5035 Cl        1 UNK         0.0000 
     31 H31       -22.0714   14.4184   17.7178 H         1 UNK         0.0000 
     32 H32       -21.2878    8.0699   20.3995 H         1 UNK         0.0000 
     33 H33       -22.8869    7.5941   19.8750 H         1 UNK         0.0000 
     34 H34       -21.5712    7.7446   18.7022 H         1 UNK         0.0000 
     35 H35       -24.4326   13.5698   17.9644 H         1 UNK         0.0000 
     36 H36       -21.5472   16.0043   19.6068 H         1 UNK         0.0000 
     37 H37       -22.8118   15.2604   20.5565 H         1 UNK         0.0000 
     38 H38       -20.3721   13.7752   19.4326 H         1 UNK         0.0000 
     39 H39       -20.5189   14.3902   21.0571 H         1 UNK         0.0000 
     40 H40       -24.4411   16.1761   18.5862 H         1 UNK         0.0000 
     41 H41       -23.2547   17.9963   17.2923 H         1 UNK         0.0000 
     42 H42       -21.8551   16.8902   16.9760 H         1 UNK         0.0000 
     43 H43       -23.4459   15.2351   15.7773 H         1 UNK         0.0000 
     44 H44       -24.8368   16.3479   16.0963 H         1 UNK         0.0000 
     45 H45       -24.9286   12.4057   16.6846 H         1 UNK         0.0000 
     46 H46       -25.2189    8.2122   15.9206 H         1 UNK         0.0000 
     47 H47       -23.6816    7.7377   17.7329 H         1 UNK         0.0000 
     48 H48       -26.6304   11.4117   15.2284 H         1 UNK         0.0000 
     49 H49       -24.0789    9.1697   13.9413 H         1 UNK         0.0000 
     50 H50       -24.1496    8.2135   11.6630 H         1 UNK         0.0000 
@<TRIPOS>BOND
     1    1    2 1    
     2    1   32 1    
     3    1   33 1    
     4    1   34 1    
     5    2   20 ar   
     6    2    3 ar   
     7    3    4 2    
     8    3    5 ar   
     9    5   11 1    
    10    5    6 ar   
    11    6    7 1    
    12    6   15 ar   
    13    7    8 1    
    14    7   35 1    
    15    8   31 1    
    16    8    9 1    
    17    8   12 1    
    18    9   10 1    
    19    9   36 1    
    20    9   37 1    
    21   10   11 1    
    22   10   38 1    
    23   10   39 1    
    24   12   14 1    
    25   12   13 1    
    26   12   40 1    
    27   13   14 1    
    28   13   41 1    
    29   13   42 1    
    30   14   43 1    
    31   14   44 1    
    32   15   20 ar   
    33   15   16 ar   
    34   16   17 ar   
    35   16   45 1    
    36   17   18 ar   
    37   17   21 1    
    38   18   19 ar   
    39   18   46 1    
    40   19   20 ar   
    41   19   47 1    
    42   21   22 1    
    43   21   48 1    
    44   22   27 ar   
    45   22   23 ar   
    46   23   24 ar   
    47   23   49 1    
    48   24   25 ar   
    49   24   50 1    
    50   25   26 ar   
    51   26   27 ar   
    52   26   30 1    
    53   27   28 1    
    54   28   29 3    
@<TRIPOS>SUBSTRUCTURE
     1 UNK         1 GROUP             0       ****    0 ROOT    
