@<TRIPOS>MOLECULE
/home/yujie/leadopt/data/result/selection/BCL6/lig_9b.sdf:1
46   49    1
SMALL
USER_CHARGES


@<TRIPOS>ATOM
      1 C1        -23.8172   16.1203   18.5462 C.3       1 UNK         0.0000 
      2 C2        -23.0655   14.8944   19.0904 C.3       1 UNK         0.0000 
      3 C3        -21.5729   15.2366   19.2856 C.3       1 UNK         0.0000 
      4 C4        -20.6447   14.0279   19.4354 C.3       1 UNK         0.0000 
      5 O5        -21.2389   12.9826   20.1899 O.3       1 UNK         0.0000 
      6 C6        -22.0692   12.0887   19.5801 C.ar      1 UNK         0.0000 
      7 C7        -22.9985   12.4151   18.6329 C.ar      1 UNK         0.0000 
      8 N8        -23.2877   13.7211   18.2473 N.pl3     1 UNK         0.0000 
      9 C9        -23.7478   11.3054   17.9696 C.ar      1 UNK         0.0000 
     10 C10       -24.6602   11.5290   16.9247 C.ar      1 UNK         0.0000 
     11 C11       -25.2416   10.4646   16.2392 C.ar      1 UNK         0.0000 
     12 C12       -24.9658    9.1592   16.6398 C.ar      1 UNK         0.0000 
     13 C13       -24.0890    8.9181   17.6927 C.ar      1 UNK         0.0000 
     14 C14       -23.4584    9.9802   18.3643 C.ar      1 UNK         0.0000 
     15 N15       -22.5262    9.7588   19.4238 N.pl3     1 UNK         0.0000 
     16 C16       -22.3014    8.3635   19.8589 C.3       1 UNK         0.0000 
     17 C17       -21.7618   10.7274   20.0197 C.ar      1 UNK         0.0000 
     18 O18       -20.8811   10.4915   20.8522 O.2       1 UNK         0.0000 
     19 N19       -26.0826   10.7297   15.1507 N.pl3     1 UNK         0.0000 
     20 C20       -26.1327   10.1184   13.8792 C.ar      1 UNK         0.0000 
     21 C21       -25.0541    9.3300   13.4534 C.ar      1 UNK         0.0000 
     22 C22       -25.0669    8.7830   12.1754 C.ar      1 UNK         0.0000 
     23 N23       -26.0840    8.9804   11.3087 N.ar      1 UNK         0.0000 
     24 C24       -27.1394    9.7340   11.7069 C.ar      1 UNK         0.0000 
     25 C25       -27.2076   10.3291   12.9841 C.ar      1 UNK         0.0000 
     26 C26       -28.3771   11.1275   13.3564 C.1       1 UNK         0.0000 
     27 N27       -29.3038   11.7552   13.6467 N.1       1 UNK         0.0000 
     28 Cl28      -28.4095    9.9069   10.5381 Cl        1 UNK         0.0000 
     29 H29       -23.4874   14.6502   20.0677 H         1 UNK         0.0000 
     30 H30       -23.7070   16.9786   19.2097 H         1 UNK         0.0000 
     31 H31       -24.8829   15.9290   18.4464 H         1 UNK         0.0000 
     32 H32       -23.4502   16.4106   17.5609 H         1 UNK         0.0000 
     33 H33       -21.2095   15.8344   18.4484 H         1 UNK         0.0000 
     34 H34       -21.4777   15.8730   20.1663 H         1 UNK         0.0000 
     35 H35       -20.3436   13.6533   18.4544 H         1 UNK         0.0000 
     36 H36       -19.7218   14.3299   19.9314 H         1 UNK         0.0000 
     37 H37       -24.1334   13.8219   17.7004 H         1 UNK         0.0000 
     38 H38       -24.8807   12.5331   16.5946 H         1 UNK         0.0000 
     39 H39       -25.4332    8.3279   16.1322 H         1 UNK         0.0000 
     40 H40       -23.9041    7.8891   17.9599 H         1 UNK         0.0000 
     41 H41       -21.6039    8.2563   20.6919 H         1 UNK         0.0000 
     42 H42       -21.9077    7.7654   19.0363 H         1 UNK         0.0000 
     43 H43       -23.2427    7.9224   20.1869 H         1 UNK         0.0000 
     44 H44       -26.7092   11.5104   15.2826 H         1 UNK         0.0000 
     45 H45       -24.1963    9.1627   14.0866 H         1 UNK         0.0000 
     46 H46       -24.2419    8.1815   11.8209 H         1 UNK         0.0000 
@<TRIPOS>BOND
     1    1    2 1    
     2    1   30 1    
     3    1   31 1    
     4    1   32 1    
     5    2   29 1    
     6    2    8 1    
     7    2    3 1    
     8    3    4 1    
     9    3   33 1    
    10    3   34 1    
    11    4    5 1    
    12    4   35 1    
    13    4   36 1    
    14    5    6 1    
    15    6   17 ar   
    16    6    7 ar   
    17    7    8 1    
    18    7    9 ar   
    19    8   37 1    
    20    9   14 ar   
    21    9   10 ar   
    22   10   11 ar   
    23   10   38 1    
    24   11   12 ar   
    25   11   19 1    
    26   12   13 ar   
    27   12   39 1    
    28   13   14 ar   
    29   13   40 1    
    30   14   15 ar   
    31   15   16 1    
    32   15   17 ar   
    33   16   41 1    
    34   16   42 1    
    35   16   43 1    
    36   17   18 2    
    37   19   20 1    
    38   19   44 1    
    39   20   25 ar   
    40   20   21 ar   
    41   21   22 ar   
    42   21   45 1    
    43   22   23 ar   
    44   22   46 1    
    45   23   24 ar   
    46   24   25 ar   
    47   24   28 1    
    48   25   26 1    
    49   26   27 3    
@<TRIPOS>SUBSTRUCTURE
     1 UNK         1 GROUP             0       ****    0 ROOT    
