@<TRIPOS>MOLECULE
/home/yujie/leadopt/data/result/selection/BCL6/lig_12b.sdf:1
50   54    1
SMALL
USER_CHARGES


@<TRIPOS>ATOM
      1 C1        -22.1980    8.2802   19.9933 C.3       1 UNK         0.0000 
      2 N2        -22.4052    9.7037   19.6470 N.pl3     1 UNK         0.0000 
      3 C3        -21.6810   10.6239   20.3550 C.ar      1 UNK         0.0000 
      4 O4        -20.8794   10.3283   21.2463 O.2       1 UNK         0.0000 
      5 C5        -21.9511   12.0116   19.9868 C.ar      1 UNK         0.0000 
      6 C6        -22.8321   12.4137   19.0258 C.ar      1 UNK         0.0000 
      7 N7        -22.9918   13.7433   18.6554 N.pl3     1 UNK         0.0000 
      8 C8        -23.2500   14.8267   19.6077 C.3       1 UNK         0.0000 
      9 C9        -22.0853   15.0966   20.5756 C.3       1 UNK         0.0000 
     10 C10       -21.7510   13.9047   21.4668 C.3       1 UNK         0.0000 
     11 O11       -21.1727   12.8501   20.7221 O.3       1 UNK         0.0000 
     12 C12       -23.6696   16.1610   18.9372 C.3       1 UNK         0.0000 
     13 C13       -22.7554   16.8410   17.9434 C.3       1 UNK         0.0000 
     14 C14       -24.0828   16.2714   17.4852 C.3       1 UNK         0.0000 
     15 C15       -23.5578   11.3578   18.2468 C.ar      1 UNK         0.0000 
     16 C16       -24.4151   11.6494   17.1663 C.ar      1 UNK         0.0000 
     17 C17       -24.9866   10.6230   16.4074 C.ar      1 UNK         0.0000 
     18 C18       -24.7791    9.2987   16.7884 C.ar      1 UNK         0.0000 
     19 C19       -23.9548    8.9923   17.8613 C.ar      1 UNK         0.0000 
     20 C20       -23.3109   10.0067   18.5865 C.ar      1 UNK         0.0000 
     21 N21       -25.7422   10.9127   15.2583 N.pl3     1 UNK         0.0000 
     22 C22       -25.7726   10.2051   14.0333 C.ar      1 UNK         0.0000 
     23 C23       -24.6522    9.4437   13.6680 C.ar      1 UNK         0.0000 
     24 C24       -24.6449    8.7615   12.4571 C.ar      1 UNK         0.0000 
     25 N25       -25.6824    8.8013   11.5940 N.ar      1 UNK         0.0000 
     26 C26       -26.7721    9.5369   11.9253 C.ar      1 UNK         0.0000 
     27 C27       -26.8634   10.2614   13.1334 C.ar      1 UNK         0.0000 
     28 C28       -28.0805   11.0170   13.4273 C.1       1 UNK         0.0000 
     29 N29       -29.0498   11.6082   13.6470 N.1       1 UNK         0.0000 
     30 Cl30      -28.0561    9.5192   10.7573 Cl        1 UNK         0.0000 
     31 H31       -24.0828   14.4889   20.2194 H         1 UNK         0.0000 
     32 H32       -21.4977    8.1085   20.8130 H         1 UNK         0.0000 
     33 H33       -23.1440    7.8299   20.2941 H         1 UNK         0.0000 
     34 H34       -21.8135    7.7313   19.1331 H         1 UNK         0.0000 
     35 H35       -23.6051   13.8598   17.8614 H         1 UNK         0.0000 
     36 H36       -21.1949   15.3962   20.0206 H         1 UNK         0.0000 
     37 H37       -22.3396   15.9410   21.2182 H         1 UNK         0.0000 
     38 H38       -21.0210   14.2080   22.2183 H         1 UNK         0.0000 
     39 H39       -22.6289   13.5579   22.0165 H         1 UNK         0.0000 
     40 H40       -24.1886   16.8101   19.6449 H         1 UNK         0.0000 
     41 H41       -22.6345   17.9227   18.0072 H         1 UNK         0.0000 
     42 H42       -21.8328   16.3379   17.6514 H         1 UNK         0.0000 
     43 H43       -24.0794   15.3928   16.8408 H         1 UNK         0.0000 
     44 H44       -24.9043   16.9465   17.2424 H         1 UNK         0.0000 
     45 H45       -24.5940   12.6719   16.8696 H         1 UNK         0.0000 
     46 H46       -25.2455    8.4952   16.2370 H         1 UNK         0.0000 
     47 H47       -23.8126    7.9480   18.0925 H         1 UNK         0.0000 
     48 H48       -26.3520   11.7133   15.3277 H         1 UNK         0.0000 
     49 H49       -23.7799    9.3933   14.3024 H         1 UNK         0.0000 
     50 H50       -23.7896    8.1737   12.1558 H         1 UNK         0.0000 
@<TRIPOS>BOND
     1    1    2 1    
     2    1   32 1    
     3    1   33 1    
     4    1   34 1    
     5    2   20 ar   
     6    2    3 ar   
     7    3    4 2    
     8    3    5 ar   
     9    5   11 1    
    10    5    6 ar   
    11    6    7 1    
    12    6   15 ar   
    13    7    8 1    
    14    7   35 1    
    15    8   31 1    
    16    8    9 1    
    17    8   12 1    
    18    9   10 1    
    19    9   36 1    
    20    9   37 1    
    21   10   11 1    
    22   10   38 1    
    23   10   39 1    
    24   12   14 1    
    25   12   13 1    
    26   12   40 1    
    27   13   14 1    
    28   13   41 1    
    29   13   42 1    
    30   14   43 1    
    31   14   44 1    
    32   15   20 ar   
    33   15   16 ar   
    34   16   17 ar   
    35   16   45 1    
    36   17   18 ar   
    37   17   21 1    
    38   18   19 ar   
    39   18   46 1    
    40   19   20 ar   
    41   19   47 1    
    42   21   22 1    
    43   21   48 1    
    44   22   27 ar   
    45   22   23 ar   
    46   23   24 ar   
    47   23   49 1    
    48   24   25 ar   
    49   24   50 1    
    50   25   26 ar   
    51   26   27 ar   
    52   26   30 1    
    53   27   28 1    
    54   28   29 3    
@<TRIPOS>SUBSTRUCTURE
     1 UNK         1 GROUP             0       ****    0 ROOT    
