@<TRIPOS>MOLECULE
/home/yujie/leadopt/data/result/selection/BCL6/lig_7.sdf:1
45   48    1
SMALL
USER_CHARGES


@<TRIPOS>ATOM
      1 C1        -23.6766   15.8679   18.0834 C.3       1 UNK         0.0000 
      2 C2        -22.9991   14.7285   18.8585 C.3       1 UNK         0.0000 
      3 C3        -22.8688   15.0710   20.3616 C.3       1 UNK         0.0000 
      4 O4        -22.6448   13.9737   21.2439 O.3       1 UNK         0.0000 
      5 C5        -21.7481   13.0523   20.8467 C.2       1 UNK         0.0000 
      6 O6        -20.5850   13.1249   21.2529 O.2       1 UNK         0.0000 
      7 C7        -22.2321   11.9543   19.9651 C.ar      1 UNK         0.0000 
      8 C8        -23.1799   12.2021   18.9970 C.ar      1 UNK         0.0000 
      9 N9        -23.6824   13.4573   18.6513 N.pl3     1 UNK         0.0000 
     10 C10       -23.7164   11.0625   18.1898 C.ar      1 UNK         0.0000 
     11 C11       -24.6457   11.2399   17.1426 C.ar      1 UNK         0.0000 
     12 C12       -25.0550   10.1672   16.3507 C.ar      1 UNK         0.0000 
     13 C13       -24.6067    8.8863   16.6639 C.ar      1 UNK         0.0000 
     14 C14       -23.7078    8.6881   17.7050 C.ar      1 UNK         0.0000 
     15 C15       -23.2300    9.7681   18.4661 C.ar      1 UNK         0.0000 
     16 N16       -22.2648    9.5959   19.5001 N.pl3     1 UNK         0.0000 
     17 C17       -21.7918    8.2139   19.7587 C.3       1 UNK         0.0000 
     18 C18       -21.7198   10.6013   20.2611 C.ar      1 UNK         0.0000 
     19 O19       -20.8828   10.3626   21.1418 O.2       1 UNK         0.0000 
     20 N20       -25.8928   10.4095   15.2509 N.pl3     1 UNK         0.0000 
     21 C21       -25.8761    9.8593   13.9492 C.ar      1 UNK         0.0000 
     22 C22       -24.7629    9.1211   13.5191 C.ar      1 UNK         0.0000 
     23 C23       -24.7298    8.6154   12.2242 C.ar      1 UNK         0.0000 
     24 N24       -25.7320    8.8090   11.3406 N.ar      1 UNK         0.0000 
     25 C25       -26.8127    9.5280   11.7350 C.ar      1 UNK         0.0000 
     26 C26       -26.9284   10.0784   13.0283 C.ar      1 UNK         0.0000 
     27 C27       -28.1219   10.8508   13.3800 C.1       1 UNK         0.0000 
     28 N28       -29.0695   11.4584   13.6466 N.1       1 UNK         0.0000 
     29 Cl29      -28.0524    9.7117   10.5343 Cl        1 UNK         0.0000 
     30 H30       -21.9941   14.6055   18.4504 H         1 UNK         0.0000 
     31 H31       -23.1127   16.7970   18.1719 H         1 UNK         0.0000 
     32 H32       -24.6873   16.0591   18.4462 H         1 UNK         0.0000 
     33 H33       -23.7505   15.6345   17.0199 H         1 UNK         0.0000 
     34 H34       -22.0839   15.8128   20.5046 H         1 UNK         0.0000 
     35 H35       -23.7935   15.5432   20.6982 H         1 UNK         0.0000 
     36 H36       -24.2646   13.4788   17.8260 H         1 UNK         0.0000 
     37 H37       -25.0200   12.2212   16.8939 H         1 UNK         0.0000 
     38 H38       -24.9491    8.0374   16.0892 H         1 UNK         0.0000 
     39 H39       -23.3837    7.6747   17.8891 H         1 UNK         0.0000 
     40 H40       -21.0183    8.1261   20.5233 H         1 UNK         0.0000 
     41 H41       -21.3704    7.7796   18.8510 H         1 UNK         0.0000 
     42 H42       -22.6244    7.5877   20.0816 H         1 UNK         0.0000 
     43 H43       -26.5826   11.1316   15.4018 H         1 UNK         0.0000 
     44 H44       -23.9115    8.9561   14.1604 H         1 UNK         0.0000 
     45 H45       -23.8830    8.0440   11.8731 H         1 UNK         0.0000 
@<TRIPOS>BOND
     1    1    2 1    
     2    1   31 1    
     3    1   32 1    
     4    1   33 1    
     5    2   30 1    
     6    2    9 1    
     7    2    3 1    
     8    3    4 1    
     9    3   34 1    
    10    3   35 1    
    11    4    5 1    
    12    5    6 2    
    13    5    7 1    
    14    7   18 ar   
    15    7    8 ar   
    16    8    9 1    
    17    8   10 ar   
    18    9   36 1    
    19   10   15 ar   
    20   10   11 ar   
    21   11   12 ar   
    22   11   37 1    
    23   12   13 ar   
    24   12   20 1    
    25   13   14 ar   
    26   13   38 1    
    27   14   15 ar   
    28   14   39 1    
    29   15   16 ar   
    30   16   17 1    
    31   16   18 ar   
    32   17   40 1    
    33   17   41 1    
    34   17   42 1    
    35   18   19 2    
    36   20   21 1    
    37   20   43 1    
    38   21   26 ar   
    39   21   22 ar   
    40   22   23 ar   
    41   22   44 1    
    42   23   24 ar   
    43   23   45 1    
    44   24   25 ar   
    45   25   26 ar   
    46   25   29 1    
    47   26   27 1    
    48   27   28 3    
@<TRIPOS>SUBSTRUCTURE
     1 UNK         1 GROUP             0       ****    0 ROOT    
