@<TRIPOS>MOLECULE
/home/yujie/leadopt/data/result/selection/BCL6/lig_11b.sdf:1
49   52    1
SMALL
USER_CHARGES


@<TRIPOS>ATOM
      1 C1        -23.1812   15.6054   16.7294 C.3       1 UNK         0.0000 
      2 C2        -23.4219   15.7734   18.2387 C.3       1 UNK         0.0000 
      3 C3        -22.9356   14.5782   19.0856 C.3       1 UNK         0.0000 
      4 C4        -22.9521   14.9146   20.5901 C.3       1 UNK         0.0000 
      5 C5        -22.7431   13.7029   21.5091 C.3       1 UNK         0.0000 
      6 O6        -21.8544   12.7364   20.9585 O.3       1 UNK         0.0000 
      7 C7        -22.3099   11.8182   20.0553 C.ar      1 UNK         0.0000 
      8 C8        -23.2304   12.0822   19.0818 C.ar      1 UNK         0.0000 
      9 N9        -23.6827   13.3605   18.7842 N.pl3     1 UNK         0.0000 
     10 C10       -23.7214   10.9559   18.2363 C.ar      1 UNK         0.0000 
     11 C11       -24.6694   11.1347   17.2107 C.ar      1 UNK         0.0000 
     12 C12       -25.0446   10.0727   16.3887 C.ar      1 UNK         0.0000 
     13 C13       -24.5495    8.7973   16.6610 C.ar      1 UNK         0.0000 
     14 C14       -23.6361    8.5962   17.6916 C.ar      1 UNK         0.0000 
     15 C15       -23.1884    9.6714   18.4781 C.ar      1 UNK         0.0000 
     16 N16       -22.2033    9.5062   19.5054 N.pl3     1 UNK         0.0000 
     17 C17       -21.6507    8.1502   19.7122 C.3       1 UNK         0.0000 
     18 C18       -21.7225   10.5043   20.3143 C.ar      1 UNK         0.0000 
     19 O19       -20.8825   10.3285   21.2040 O.2       1 UNK         0.0000 
     20 N20       -25.8937   10.3155   15.2960 N.pl3     1 UNK         0.0000 
     21 C21       -25.8387    9.8131   13.9747 C.ar      1 UNK         0.0000 
     22 C22       -24.6878    9.1412   13.5355 C.ar      1 UNK         0.0000 
     23 C23       -24.6155    8.6788   12.2261 C.ar      1 UNK         0.0000 
     24 N24       -25.6132    8.8564   11.3347 N.ar      1 UNK         0.0000 
     25 C25       -26.7257    9.5201   11.7332 C.ar      1 UNK         0.0000 
     26 C26       -26.8839   10.0197   13.0426 C.ar      1 UNK         0.0000 
     27 C27       -28.1133   10.7306   13.3902 C.1       1 UNK         0.0000 
     28 N28       -29.0900   11.2930   13.6501 N.1       1 UNK         0.0000 
     29 Cl29      -27.9529    9.6904   10.5177 Cl        1 UNK         0.0000 
     30 H30       -23.5531   16.4691   16.1788 H         1 UNK         0.0000 
     31 H31       -23.6904   14.7253   16.3363 H         1 UNK         0.0000 
     32 H32       -22.1188   15.5011   16.5070 H         1 UNK         0.0000 
     33 H33       -22.9116   16.6808   18.5648 H         1 UNK         0.0000 
     34 H34       -24.4837   15.9480   18.4191 H         1 UNK         0.0000 
     35 H35       -21.8984   14.3806   18.8076 H         1 UNK         0.0000 
     36 H36       -22.1741   15.6524   20.7894 H         1 UNK         0.0000 
     37 H37       -23.8953   15.3919   20.8610 H         1 UNK         0.0000 
     38 H38       -22.3475   14.0333   22.4694 H         1 UNK         0.0000 
     39 H39       -23.6984   13.2251   21.7330 H         1 UNK         0.0000 
     40 H40       -24.2221   13.4530   17.9337 H         1 UNK         0.0000 
     41 H41       -25.0774   12.1125   17.0029 H         1 UNK         0.0000 
     42 H42       -24.8635    7.9560   16.0600 H         1 UNK         0.0000 
     43 H43       -23.2717    7.5925   17.8466 H         1 UNK         0.0000 
     44 H44       -20.8626    8.0928   20.4657 H         1 UNK         0.0000 
     45 H45       -21.2156    7.7731   18.7851 H         1 UNK         0.0000 
     46 H46       -22.4407    7.4657   20.0229 H         1 UNK         0.0000 
     47 H47       -26.6062   11.0123   15.4633 H         1 UNK         0.0000 
     48 H48       -23.8372    8.9949   14.1820 H         1 UNK         0.0000 
     49 H49       -23.7370    8.1613   11.8688 H         1 UNK         0.0000 
@<TRIPOS>BOND
     1    1    2 1    
     2    1   30 1    
     3    1   31 1    
     4    1   32 1    
     5    2    3 1    
     6    2   33 1    
     7    2   34 1    
     8    3    9 1    
     9    3    4 1    
    10    3   35 1    
    11    4    5 1    
    12    4   36 1    
    13    4   37 1    
    14    5    6 1    
    15    5   38 1    
    16    5   39 1    
    17    6    7 1    
    18    7   18 ar   
    19    7    8 ar   
    20    8    9 1    
    21    8   10 ar   
    22    9   40 1    
    23   10   15 ar   
    24   10   11 ar   
    25   11   12 ar   
    26   11   41 1    
    27   12   13 ar   
    28   12   20 1    
    29   13   14 ar   
    30   13   42 1    
    31   14   15 ar   
    32   14   43 1    
    33   15   16 ar   
    34   16   17 1    
    35   16   18 ar   
    36   17   44 1    
    37   17   45 1    
    38   17   46 1    
    39   18   19 2    
    40   20   21 1    
    41   20   47 1    
    42   21   26 ar   
    43   21   22 ar   
    44   22   23 ar   
    45   22   48 1    
    46   23   24 ar   
    47   23   49 1    
    48   24   25 ar   
    49   25   26 ar   
    50   25   29 1    
    51   26   27 1    
    52   27   28 3    
@<TRIPOS>SUBSTRUCTURE
     1 UNK         1 GROUP             0       ****    0 ROOT    
