@<TRIPOS>MOLECULE
/home/yujie/leadopt/data/result/selection/BCL6/lig_5a.sdf:1
39   42    1
SMALL
USER_CHARGES


@<TRIPOS>ATOM
      1 Cl1       -27.9267    9.6679   10.5449 Cl        1 UNK         0.0000 
      2 C2        -26.7090    9.4688   11.7669 C.ar      1 UNK         0.0000 
      3 N3        -25.6333    8.7308   11.3958 N.ar      1 UNK         0.0000 
      4 C4        -24.6470    8.5273   12.2964 C.ar      1 UNK         0.0000 
      5 C5        -24.6918    9.0450   13.5860 C.ar      1 UNK         0.0000 
      6 C6        -25.7987    9.8028   13.9925 C.ar      1 UNK         0.0000 
      7 C7        -26.8383   10.0244   13.0566 C.ar      1 UNK         0.0000 
      8 C8        -28.0296   10.8064   13.3901 C.1       1 UNK         0.0000 
      9 N9        -28.9736   11.4229   13.6465 N.1       1 UNK         0.0000 
     10 N10       -25.8174   10.3782   15.2817 N.pl3     1 UNK         0.0000 
     11 C11       -24.9942   10.1529   16.3959 C.ar      1 UNK         0.0000 
     12 C12       -24.5577    8.8706   16.7532 C.ar      1 UNK         0.0000 
     13 C13       -23.6836    8.6911   17.8278 C.ar      1 UNK         0.0000 
     14 C14       -23.2564    9.7968   18.5619 C.ar      1 UNK         0.0000 
     15 C15       -23.7236   11.0832   18.2492 C.ar      1 UNK         0.0000 
     16 C16       -24.5941   11.2507   17.1625 C.ar      1 UNK         0.0000 
     17 C17       -23.1871   12.2010   19.0734 C.ar      1 UNK         0.0000 
     18 C18       -22.2444   11.9652   20.0324 C.ar      1 UNK         0.0000 
     19 C19       -21.6870   13.1134   20.8874 C.3       1 UNK         0.0000 
     20 C20       -21.8583   14.4688   20.1645 C.3       1 UNK         0.0000 
     21 C21       -23.2823   14.6675   19.6045 C.3       1 UNK         0.0000 
     22 N22       -23.6658   13.4789   18.8479 N.pl3     1 UNK         0.0000 
     23 C23       -21.7392   10.6168   20.3109 C.ar      1 UNK         0.0000 
     24 O24       -20.8828   10.3302   21.1433 O.2       1 UNK         0.0000 
     25 N25       -22.3140    9.6375   19.5845 N.pl3     1 UNK         0.0000 
     26 H26       -23.7999    7.9477   11.9596 H         1 UNK         0.0000 
     27 H27       -23.8517    8.8753   14.2414 H         1 UNK         0.0000 
     28 H28       -26.4937   11.1186   15.4073 H         1 UNK         0.0000 
     29 H29       -24.8871    8.0094   16.1907 H         1 UNK         0.0000 
     30 H30       -23.3304    7.7004   18.0748 H         1 UNK         0.0000 
     31 H31       -24.9129   12.2398   16.8764 H         1 UNK         0.0000 
     32 H32       -22.2231   13.1355   21.8373 H         1 UNK         0.0000 
     33 H33       -20.6397   12.9591   21.1515 H         1 UNK         0.0000 
     34 H34       -21.6041   15.2928   20.8325 H         1 UNK         0.0000 
     35 H35       -21.1458   14.5239   19.3401 H         1 UNK         0.0000 
     36 H36       -23.9998   14.7274   20.4249 H         1 UNK         0.0000 
     37 H37       -23.3590   15.5536   18.9745 H         1 UNK         0.0000 
     38 H38       -24.3300   13.6609   18.1058 H         1 UNK         0.0000 
     39 H39       -21.9530    8.7248   19.8086 H         1 UNK         0.0000 
@<TRIPOS>BOND
     1    1    2 1    
     2    2    7 ar   
     3    2    3 ar   
     4    3    4 ar   
     5    4    5 ar   
     6    4   26 1    
     7    5    6 ar   
     8    5   27 1    
     9    6    7 ar   
    10    6   10 1    
    11    7    8 1    
    12    8    9 3    
    13   10   11 1    
    14   10   28 1    
    15   11   16 ar   
    16   11   12 ar   
    17   12   13 ar   
    18   12   29 1    
    19   13   14 ar   
    20   13   30 1    
    21   14   25 ar   
    22   14   15 ar   
    23   15   16 ar   
    24   15   17 ar   
    25   16   31 1    
    26   17   22 1    
    27   17   18 ar   
    28   18   19 1    
    29   18   23 ar   
    30   19   20 1    
    31   19   32 1    
    32   19   33 1    
    33   20   21 1    
    34   20   34 1    
    35   20   35 1    
    36   21   22 1    
    37   21   36 1    
    38   21   37 1    
    39   22   38 1    
    40   23   24 2    
    41   23   25 ar   
    42   25   39 1    
@<TRIPOS>SUBSTRUCTURE
     1 UNK         1 GROUP             0       ****    0 ROOT    
