/home/yujie/leadopt/data/result/selection/BCL6/lig_11c.sdf:1
                    3D
 Schrodinger Suite 2020-3.
 53 57  0  0  1  0            999 V2000
  -21.9398    8.2047   19.9151 C   0  0  0  0  0  0
  -22.3220    9.6023   19.6164 N   0  0  0  0  0  0
  -21.7253   10.5836   20.3649 C   0  0  0  0  0  0
  -20.8831   10.3649   21.2417 O   0  0  0  0  0  0
  -22.1824   11.9384   20.0465 C   0  0  0  0  0  0
  -23.0539   12.2521   19.0454 C   0  0  0  0  0  0
  -23.4953   13.5417   18.7916 N   0  0  0  0  0  0
  -22.5638   14.6484   18.5735 C   0  0  2  0  0  0
  -21.8768   15.0665   19.8885 C   0  0  0  0  0  0
  -20.9540   13.9849   20.4525 C   0  0  0  0  0  0
  -21.6543   12.8432   20.9176 O   0  0  0  0  0  0
  -23.2696   15.8522   17.8872 C   0  0  0  0  0  0
  -22.3132   16.9244   17.3226 C   0  0  0  0  0  0
  -22.3951   16.2562   15.9471 C   0  0  0  0  0  0
  -23.6824   15.5830   16.4255 C   0  0  0  0  0  0
  -23.6414   11.1429   18.2395 C   0  0  0  0  0  0
  -24.5219   11.3703   17.1646 C   0  0  0  0  0  0
  -24.9963   10.3085   16.3907 C   0  0  0  0  0  0
  -24.6530    9.0022   16.7413 C   0  0  0  0  0  0
  -23.7921    8.7604   17.8077 C   0  0  0  0  0  0
  -23.2573    9.8211   18.5565 C   0  0  0  0  0  0
  -25.8007   10.5732   15.2713 N   0  0  0  0  0  0
  -25.8047    9.9599   13.9980 C   0  0  0  0  0  0
  -24.6983    9.1961   13.5992 C   0  0  0  0  0  0
  -24.6710    8.6341   12.3277 C   0  0  0  0  0  0
  -25.6792    8.7902   11.4393 N   0  0  0  0  0  0
  -26.7562    9.5287   11.8073 C   0  0  0  0  0  0
  -26.8628   10.1377   13.0751 C   0  0  0  0  0  0
  -28.0597   10.9155   13.4016 C   0  0  0  0  0  0
  -29.0089   11.5267   13.6481 N   0  0  0  0  0  0
  -28.0034    9.6548   10.6092 Cl  0  0  0  0  0  0
  -21.2344    8.0915   20.7408 H   0  0  0  0  0  0
  -22.8240    7.6246   20.1794 H   0  0  0  0  0  0
  -21.4750    7.7444   19.0399 H   0  0  0  0  0  0
  -24.2250   13.5855   18.0922 H   0  0  0  0  0  0
  -21.7906   14.2857   17.8921 H   0  0  0  0  0  0
  -21.2784   15.9624   19.7389 H   0  0  0  0  0  0
  -22.6256   15.3334   20.6369 H   0  0  0  0  0  0
  -20.1955   13.6926   19.7242 H   0  0  0  0  0  0
  -20.4109   14.3886   21.3067 H   0  0  0  0  0  0
  -24.0639   16.2331   18.5315 H   0  0  0  0  0  0
  -22.7484   17.9239   17.3500 H   0  0  0  0  0  0
  -21.3275   16.9992   17.7815 H   0  0  0  0  0  0
  -22.5047   16.9363   15.1009 H   0  0  0  0  0  0
  -21.5792   15.5552   15.7536 H   0  0  0  0  0  0
  -23.8380   14.5376   16.1520 H   0  0  0  0  0  0
  -24.5872   16.1250   16.1421 H   0  0  0  0  0  0
  -24.8104   12.3737   16.8900 H   0  0  0  0  0  0
  -25.0465    8.1701   16.1757 H   0  0  0  0  0  0
  -23.5426    7.7316   18.0180 H   0  0  0  0  0  0
  -26.4448   11.3420   15.3839 H   0  0  0  0  0  0
  -23.8455    9.0599   14.2463 H   0  0  0  0  0  0
  -23.8237    8.0526   11.9952 H   0  0  0  0  0  0
  1  2  1  0  0  0
  1 32  1  0  0  0
  1 33  1  0  0  0
  1 34  1  0  0  0
  2 21  1  0  0  0
  2  3  1  0  0  0
  3  4  2  0  0  0
  3  5  1  0  0  0
  5 11  1  0  0  0
  5  6  2  0  0  0
  6  7  1  0  0  0
  6 16  1  0  0  0
  7  8  1  0  0  0
  7 35  1  0  0  0
  8  9  1  0  0  0
  8 12  1  0  0  0
  8 36  1  0  0  0
  9 10  1  0  0  0
  9 37  1  0  0  0
  9 38  1  0  0  0
 10 11  1  0  0  0
 10 39  1  0  0  0
 10 40  1  0  0  0
 12 15  1  0  0  0
 12 13  1  0  0  0
 12 41  1  0  0  0
 13 14  1  0  0  0
 13 42  1  0  0  0
 13 43  1  0  0  0
 14 15  1  0  0  0
 14 44  1  0  0  0
 14 45  1  0  0  0
 15 46  1  0  0  0
 15 47  1  0  0  0
 16 21  2  0  0  0
 16 17  1  0  0  0
 17 18  2  0  0  0
 17 48  1  0  0  0
 18 19  1  0  0  0
 18 22  1  0  0  0
 19 20  2  0  0  0
 19 49  1  0  0  0
 20 21  1  0  0  0
 20 50  1  0  0  0
 22 23  1  0  0  0
 22 51  1  0  0  0
 23 28  1  0  0  0
 23 24  2  0  0  0
 24 25  1  0  0  0
 24 52  1  0  0  0
 25 26  2  0  0  0
 25 53  1  0  0  0
 26 27  1  0  0  0
 27 28  2  0  0  0
 27 31  1  0  0  0
 28 29  1  0  0  0
 29 30  3  0  0  0
M  END
> <s_m_source_file>
/home/yujie/leadopt/data/result/selection/BCL6/lig_11c.sdf

> <i_m_source_file_index>
1

> <i_lp_mmshare_version>
51139

> <i_f3d_flags>
0

> <s_epik_input>
W0NIMl0xW0NIMl1bQ0gyXVtDSF0xW0NAQEhdKFtDSDJdW0NIMl1PMilbTkhdYyhjMjMpYzRjKG4oW0NIM10pYzM9TylbY0hdW2NIXWMoW2NIXTQpW05IXWM1W2NIXVtjSF1uYyhDbCljNUMjTg==

> <s_epik_cmdline>
J2VwaWtfcHl0aG9uJywgJy1waHQnLCAnMi4wJywgJy1waCcsICc3LjAnLCAnLXRuJywgJzgnLCAnLW1hJywgJzIwMCcsICctaW1hZScsICc8aW5maWxlLm1hZT4nLCAnLW9tYWUnLCAnPG91dGZpbGUubWFlPic=

> <r_epik_Ionization_Penalty>
  0.3183

> <r_epik_Ionization_Penalty_Charging>
  0.0000

> <r_epik_Ionization_Penalty_Neutral>
  0.3183

> <r_epik_State_Penalty>
  0.3126

> <r_epik_Charging_Adjusted_Penalty>
0.312652

> <i_epik_Tot_Q>
0

> <i_epik_Tot_abs_Q>
0

> <s_lp_Force_Field>
OPLS3e

> <r_lp_Energy>
69.8432

> <b_lp_Chiralities_Consistent>
1

> <s_lp_Variant>
/home/yujie/leadopt/data/result/selection/BCL6/lig_11c.sdf:1-1

> <s_i_glide_gridfile>
glide-grid_BCL6

> <i_i_glide_lignum>
1

> <i_i_glide_rotatable_bonds>
3

> <r_i_docking_score>
-4.89067107573342

> <r_i_glide_ligand_efficiency>
-0.157763583088175

> <r_i_glide_ligand_efficiency_sa>
-0.495595466997845

> <r_i_glide_ligand_efficiency_ln>
-1.10299620864632

> <r_i_glide_gscore>
-5.20331207573342

> <r_i_glide_lipo>
-1.81264860920335

> <r_i_glide_hbond>
-0.354957566361785

> <r_i_glide_metal>
-0

> <r_i_glide_rewards>
-0.847804027690541

> <r_i_glide_evdw>
-31.5418376922607

> <r_i_glide_ecoul>
-6.16962957382202

> <r_i_glide_erotb>
0.314634448208595

> <r_i_glide_esite>
0

> <r_i_glide_emodel>
-47.6807015208739

> <r_i_glide_energy>
-37.7114672660828

> <r_i_glide_einternal>
3.35135102272034

> <i_i_glide_confnum>
5

> <i_i_glide_posenum>
362

> <r_i_glide_eff_state_penalty>
0.312641

$$$$
