/home/yujie/leadopt/data/result/selection/BCL6/lig_8.sdf:1
                    3D
 Schrodinger Suite 2020-3.
 46 49  0  0  1  0            999 V2000
  -23.6490   15.9360   18.2433 C   0  0  0  0  0  0
  -23.0411   14.7915   19.0718 C   0  0  1  0  0  0
  -23.0919   15.0974   20.5856 C   0  0  0  0  0  0
  -22.6860   14.0538   21.4665 O   0  0  0  0  0  0
  -21.7171   13.1360   20.9752 C   0  0  0  0  0  0
  -22.2660   12.0315   20.0474 C   0  0  0  0  0  0
  -23.2024   12.2631   19.0778 C   0  0  0  0  0  0
  -23.6828   13.5243   18.7564 N   0  0  0  0  0  0
  -23.7473   11.1252   18.2785 C   0  0  0  0  0  0
  -24.6469   11.3056   17.2102 C   0  0  0  0  0  0
  -25.0620   10.2282   16.4289 C   0  0  0  0  0  0
  -24.6435    8.9426   16.7695 C   0  0  0  0  0  0
  -23.7679    8.7431   17.8329 C   0  0  0  0  0  0
  -23.2883    9.8292   18.5864 C   0  0  0  0  0  0
  -22.3429    9.6647   19.6408 N   0  0  0  0  0  0
  -21.9078    8.2848   19.9539 C   0  0  0  0  0  0
  -21.7617   10.6835   20.3508 C   0  0  0  0  0  0
  -20.8828   10.4851   21.1958 O   0  0  0  0  0  0
  -25.8804   10.4671   15.3133 N   0  0  0  0  0  0
  -25.8544    9.8938   14.0217 C   0  0  0  0  0  0
  -24.7405    9.1414   13.6200 C   0  0  0  0  0  0
  -24.6940    8.6102   12.3363 C   0  0  0  0  0  0
  -25.6837    8.7937   11.4363 N   0  0  0  0  0  0
  -26.7633    9.5291   11.8012 C   0  0  0  0  0  0
  -26.8917   10.1057   13.0825 C   0  0  0  0  0  0
  -28.0815   10.8961   13.4034 C   0  0  0  0  0  0
  -29.0244   11.5205   13.6471 N   0  0  0  0  0  0
  -27.9846    9.7025   10.5810 Cl  0  0  0  0  0  0
  -21.9972   14.7001   18.7678 H   0  0  0  0  0  0
  -23.1495   16.8831   18.4503 H   0  0  0  0  0  0
  -24.7112   16.0723   18.4474 H   0  0  0  0  0  0
  -23.5472   15.7443   17.1742 H   0  0  0  0  0  0
  -22.4609   15.9627   20.7905 H   0  0  0  0  0  0
  -24.0999   15.3890   20.8823 H   0  0  0  0  0  0
  -20.8909   13.6532   20.4841 H   0  0  0  0  0  0
  -21.2798   12.7323   21.8883 H   0  0  0  0  0  0
  -24.2789   13.5851   17.9426 H   0  0  0  0  0  0
  -24.9920   12.2928   16.9411 H   0  0  0  0  0  0
  -24.9899    8.0919   16.2018 H   0  0  0  0  0  0
  -23.4604    7.7295   18.0401 H   0  0  0  0  0  0
  -21.1926    8.2084   20.7750 H   0  0  0  0  0  0
  -21.4351    7.8297   19.0828 H   0  0  0  0  0  0
  -22.7671    7.6751   20.2350 H   0  0  0  0  0  0
  -26.5678   11.1952   15.4462 H   0  0  0  0  0  0
  -23.8985    8.9853   14.2759 H   0  0  0  0  0  0
  -23.8426    8.0322   12.0054 H   0  0  0  0  0  0
  1  2  1  0  0  0
  1 30  1  0  0  0
  1 31  1  0  0  0
  1 32  1  0  0  0
  2 29  1  0  0  0
  2  8  1  0  0  0
  2  3  1  0  0  0
  3  4  1  0  0  0
  3 33  1  0  0  0
  3 34  1  0  0  0
  4  5  1  0  0  0
  5  6  1  0  0  0
  5 35  1  0  0  0
  5 36  1  0  0  0
  6 17  1  0  0  0
  6  7  2  0  0  0
  7  8  1  0  0  0
  7  9  1  0  0  0
  8 37  1  0  0  0
  9 14  2  0  0  0
  9 10  1  0  0  0
 10 11  2  0  0  0
 10 38  1  0  0  0
 11 12  1  0  0  0
 11 19  1  0  0  0
 12 13  2  0  0  0
 12 39  1  0  0  0
 13 14  1  0  0  0
 13 40  1  0  0  0
 14 15  1  0  0  0
 15 16  1  0  0  0
 15 17  1  0  0  0
 16 41  1  0  0  0
 16 42  1  0  0  0
 16 43  1  0  0  0
 17 18  2  0  0  0
 19 20  1  0  0  0
 19 44  1  0  0  0
 20 25  1  0  0  0
 20 21  2  0  0  0
 21 22  1  0  0  0
 21 45  1  0  0  0
 22 23  2  0  0  0
 22 46  1  0  0  0
 23 24  1  0  0  0
 24 25  2  0  0  0
 24 28  1  0  0  0
 25 26  1  0  0  0
 26 27  3  0  0  0
M  END
> <s_m_source_file>
/home/yujie/leadopt/data/result/selection/BCL6/lig_8.sdf

> <i_m_source_file_index>
1

> <i_lp_mmshare_version>
51139

> <i_f3d_flags>
0

> <s_epik_input>
W0NIMl0xT1tDSDJdW0NASF0oW0NIM10pW05IXWMoYzEyKWMzYyhuKFtDSDNdKWMyPU8pW2NIXVtjSF1jKFtjSF0zKVtOSF1jNFtjSF1bY0hdbmMoQ2wpYzRDI04=

> <s_epik_cmdline>
J2VwaWtfcHl0aG9uJywgJy1waHQnLCAnMi4wJywgJy1waCcsICc3LjAnLCAnLXRuJywgJzgnLCAnLW1hJywgJzIwMCcsICctaW1hZScsICc8aW5maWxlLm1hZT4nLCAnLW9tYWUnLCAnPG91dGZpbGUubWFlPic=

> <r_epik_Ionization_Penalty>
  0.0031

> <r_epik_Ionization_Penalty_Charging>
  0.0000

> <r_epik_Ionization_Penalty_Neutral>
  0.0031

> <r_epik_State_Penalty>
  0.0021

> <r_epik_Charging_Adjusted_Penalty>
0.00209822

> <i_epik_Tot_Q>
0

> <i_epik_Tot_abs_Q>
0

> <s_lp_Force_Field>
OPLS3e

> <r_lp_Energy>
55.6449

> <b_lp_Chiralities_Consistent>
1

> <s_lp_Variant>
/home/yujie/leadopt/data/result/selection/BCL6/lig_8.sdf:1-1

> <s_i_glide_gridfile>
glide-grid_BCL6

> <i_i_glide_lignum>
1

> <i_i_glide_rotatable_bonds>
2

> <r_i_docking_score>
-5.98070054916752

> <r_i_glide_ligand_efficiency>
-0.213596448184554

> <r_i_glide_ligand_efficiency_sa>
-0.648604618268602

> <r_i_glide_ligand_efficiency_ln>
-1.38052128774633

> <r_i_glide_gscore>
-5.98279528916752

> <r_i_glide_lipo>
-2.13283612998928

> <r_i_glide_hbond>
-0.405979932829441

> <r_i_glide_metal>
-0

> <r_i_glide_rewards>
-1.11745586714304

> <r_i_glide_evdw>
-33.4580879211426

> <r_i_glide_ecoul>
-6.00092124938965

> <r_i_glide_erotb>
0.249649703726169

> <r_i_glide_esite>
-0.00313047946636298

> <r_i_glide_emodel>
-49.4674236714357

> <r_i_glide_energy>
-39.4590091705322

> <r_i_glide_einternal>
5.89279270172119

> <i_i_glide_confnum>
4

> <i_i_glide_posenum>
229

> <r_i_glide_eff_state_penalty>
0.00209474

$$$$
