/home/yujie/leadopt/data/result/selection/BCL6/lig_1.sdf:1
                    3D
 Schrodinger Suite 2020-3.
 50 54  0  0  1  0            999 V2000
  -21.7255    8.1467   19.8002 C   0  0  0  0  0  0
  -22.2440    9.5134   19.5740 N   0  0  0  0  0  0
  -21.7318   10.5111   20.3641 C   0  0  0  0  0  0
  -20.8826   10.3287   21.2438 O   0  0  0  0  0  0
  -22.3040   11.8318   20.1011 C   0  0  0  0  0  0
  -23.2283   12.1030   19.1343 C   0  0  0  0  0  0
  -23.6828   13.3819   18.8494 N   0  0  0  0  0  0
  -22.9518   14.6064   19.1641 C   0  0  1  0  0  0
  -23.4688   15.7728   18.2971 C   0  0  0  0  0  0
  -22.5162   16.8347   17.8104 C   0  0  0  0  0  0
  -23.1065   15.8313   16.8346 C   0  0  0  0  0  0
  -22.9422   14.9475   20.6790 C   0  0  0  0  0  0
  -21.9700   15.8315   20.9148 F   0  0  0  0  0  0
  -24.0808   15.5368   21.0523 F   0  0  0  0  0  0
  -22.7266   13.7089   21.5658 C   0  0  0  0  0  0
  -21.8404   12.7478   21.0001 O   0  0  0  0  0  0
  -23.7333   10.9810   18.2913 C   0  0  0  0  0  0
  -24.6648   11.1709   17.2531 C   0  0  0  0  0  0
  -25.0508   10.1109   16.4333 C   0  0  0  0  0  0
  -24.5815    8.8286   16.7177 C   0  0  0  0  0  0
  -23.6809    8.6178   17.7578 C   0  0  0  0  0  0
  -23.2209    9.6893   18.5428 C   0  0  0  0  0  0
  -25.8840   10.3588   15.3292 N   0  0  0  0  0  0
  -25.8167    9.8444   14.0132 C   0  0  0  0  0  0
  -24.6578    9.1740   13.5917 C   0  0  0  0  0  0
  -24.5699    8.6988   12.2885 C   0  0  0  0  0  0
  -25.5600    8.8638   11.3851 N   0  0  0  0  0  0
  -26.6815    9.5225   11.7671 C   0  0  0  0  0  0
  -26.8559   10.0336   13.0703 C   0  0  0  0  0  0
  -28.0943   10.7374   13.4010 C   0  0  0  0  0  0
  -29.0777   11.2938   13.6470 N   0  0  0  0  0  0
  -27.8978    9.6779   10.5384 Cl  0  0  0  0  0  0
  -21.9168   14.4120   18.8750 H   0  0  0  0  0  0
  -20.9510    8.0761   20.5662 H   0  0  0  0  0  0
  -22.5341    7.4832   20.1084 H   0  0  0  0  0  0
  -21.2881    7.7504   18.8831 H   0  0  0  0  0  0
  -24.2336   13.4795   18.0066 H   0  0  0  0  0  0
  -24.4821   16.0806   18.5625 H   0  0  0  0  0  0
  -22.8645   17.8680   17.7897 H   0  0  0  0  0  0
  -21.4631   16.7588   18.0834 H   0  0  0  0  0  0
  -22.4690   15.0497   16.4205 H   0  0  0  0  0  0
  -23.8760   16.1529   16.1318 H   0  0  0  0  0  0
  -22.3038   14.0182   22.5218 H   0  0  0  0  0  0
  -23.6822   13.2397   21.8092 H   0  0  0  0  0  0
  -25.0521   12.1551   17.0346 H   0  0  0  0  0  0
  -24.9050    7.9895   16.1196 H   0  0  0  0  0  0
  -23.3363    7.6081   17.9208 H   0  0  0  0  0  0
  -26.5985   11.0562   15.4868 H   0  0  0  0  0  0
  -23.8125    9.0383   14.2481 H   0  0  0  0  0  0
  -23.6840    8.1837   11.9439 H   0  0  0  0  0  0
  1  2  1  0  0  0
  1 34  1  0  0  0
  1 35  1  0  0  0
  1 36  1  0  0  0
  2 22  1  0  0  0
  2  3  1  0  0  0
  3  4  2  0  0  0
  3  5  1  0  0  0
  5 16  1  0  0  0
  5  6  2  0  0  0
  6  7  1  0  0  0
  6 17  1  0  0  0
  7  8  1  0  0  0
  7 37  1  0  0  0
  8 33  1  0  0  0
  8  9  1  0  0  0
  8 12  1  0  0  0
  9 11  1  0  0  0
  9 10  1  0  0  0
  9 38  1  0  0  0
 10 11  1  0  0  0
 10 39  1  0  0  0
 10 40  1  0  0  0
 11 41  1  0  0  0
 11 42  1  0  0  0
 12 13  1  0  0  0
 12 14  1  0  0  0
 12 15  1  0  0  0
 15 16  1  0  0  0
 15 43  1  0  0  0
 15 44  1  0  0  0
 17 22  2  0  0  0
 17 18  1  0  0  0
 18 19  2  0  0  0
 18 45  1  0  0  0
 19 20  1  0  0  0
 19 23  1  0  0  0
 20 21  2  0  0  0
 20 46  1  0  0  0
 21 22  1  0  0  0
 21 47  1  0  0  0
 23 24  1  0  0  0
 23 48  1  0  0  0
 24 29  1  0  0  0
 24 25  2  0  0  0
 25 26  1  0  0  0
 25 49  1  0  0  0
 26 27  2  0  0  0
 26 50  1  0  0  0
 27 28  1  0  0  0
 28 29  2  0  0  0
 28 32  1  0  0  0
 29 30  1  0  0  0
 30 31  3  0  0  0
M  END
> <s_m_source_file>
/home/yujie/leadopt/data/result/selection/BCL6/lig_1.sdf

> <i_m_source_file_index>
1

> <i_lp_mmshare_version>
51139

> <i_f3d_flags>
0

> <s_epik_input>
W0NIMl0xW0NIMl1bQ0hdMVtDQEBIXShDKEYpKEYpW0NIMl1PMilbTkhdYyhjMjMpYzRjKG4oW0NIM10pYzM9TylbY0hdW2NIXWMoW2NIXTQpW05IXWM1W2NIXVtjSF1uYyhDbCljNUMjTg==

> <s_epik_cmdline>
J2VwaWtfcHl0aG9uJywgJy1waHQnLCAnMi4wJywgJy1waCcsICc3LjAnLCAnLXRuJywgJzgnLCAnLW1hJywgJzIwMCcsICctaW1hZScsICc8aW5maWxlLm1hZT4nLCAnLW9tYWUnLCAnPG91dGZpbGUubWFlPic=

> <r_epik_Ionization_Penalty>
  0.0016

> <r_epik_Ionization_Penalty_Charging>
  0.0000

> <r_epik_Ionization_Penalty_Neutral>
  0.0016

> <r_epik_State_Penalty>
  0.0010

> <r_epik_Charging_Adjusted_Penalty>
0.00100151

> <i_epik_Tot_Q>
0

> <i_epik_Tot_abs_Q>
0

> <s_lp_Force_Field>
OPLS3e

> <r_lp_Energy>
63.4608

> <b_lp_Chiralities_Consistent>
1

> <s_lp_Variant>
/home/yujie/leadopt/data/result/selection/BCL6/lig_1.sdf:1-1

> <s_i_glide_gridfile>
glide-grid_BCL6

> <i_i_glide_lignum>
1

> <i_i_glide_rotatable_bonds>
3

> <r_i_docking_score>
-6.35462025963787

> <r_i_glide_ligand_efficiency>
-0.198581883113683

> <r_i_glide_ligand_efficiency_sa>
-0.63045817958464

> <r_i_glide_ligand_efficiency_ln>
-1.42297269653898

> <r_i_glide_gscore>
-6.35561574663787

> <r_i_glide_lipo>
-2.28391868154481

> <r_i_glide_hbond>
-0.356608899047251

> <r_i_glide_metal>
-0

> <r_i_glide_rewards>
-1.16504508414123

> <r_i_glide_evdw>
-35.172794342041

> <r_i_glide_ecoul>
-7.19441699981689

> <r_i_glide_erotb>
0.287759185170002

> <r_i_glide_esite>
0

> <r_i_glide_emodel>
-55.2204765771069

> <r_i_glide_energy>
-42.3672113418579

> <r_i_glide_einternal>
4.80099534988403

> <i_i_glide_confnum>
2

> <i_i_glide_posenum>
393

> <r_i_glide_eff_state_penalty>
0.000995487

$$$$
