/home/yujie/leadopt/data/result/selection/BCL6/lig_13d.sdf:1
                    3D
 Schrodinger Suite 2020-3.
 51 55  0  0  1  0            999 V2000
  -22.5099   13.9815   17.0062 C   0  0  0  0  0  0
  -23.2431   14.2916   18.3274 C   0  0  1  0  0  0
  -24.0821   13.0799   18.7703 N   0  3  0  0  0  0
  -23.4527   11.7663   18.9122 C   0  0  0  0  0  0
  -22.4622   11.5725   19.8154 C   0  0  0  0  0  0
  -21.9820   12.5715   20.6030 O   0  0  0  0  0  0
  -21.3251   13.6877   20.0069 C   0  0  0  0  0  0
  -22.3204   14.7451   19.4804 C   0  0  0  0  0  0
  -21.8987   16.2031   19.5054 C   0  0  0  0  0  0
  -22.9127   15.7014   20.5041 C   0  0  0  0  0  0
  -21.7936   10.2916   20.0481 C   0  0  0  0  0  0
  -20.8823   10.1780   20.8752 O   0  0  0  0  0  0
  -22.2805    9.2602   19.2792 N   0  0  0  0  0  0
  -21.6742    7.9268   19.4820 C   0  0  0  0  0  0
  -23.2945    9.3833   18.2754 C   0  0  0  0  0  0
  -23.6936    8.3068   17.4654 C   0  0  0  0  0  0
  -24.6357    8.4882   16.4539 C   0  0  0  0  0  0
  -25.2037    9.7438   16.2329 C   0  0  0  0  0  0
  -24.8782   10.7989   17.0762 C   0  0  0  0  0  0
  -23.9077   10.6375   18.0741 C   0  0  0  0  0  0
  -26.0812    9.9986   15.1715 N   0  0  0  0  0  0
  -26.0280    9.5964   13.8171 C   0  0  0  0  0  0
  -24.9116    8.8992   13.3264 C   0  0  0  0  0  0
  -24.8617    8.5444   11.9856 C   0  0  0  0  0  0
  -25.8492    8.8395   11.1130 N   0  0  0  0  0  0
  -26.9270    9.5289   11.5624 C   0  0  0  0  0  0
  -27.0561    9.9394   12.9054 C   0  0  0  0  0  0
  -28.2202   10.7287   13.3221 C   0  0  0  0  0  0
  -29.1418   11.3493   13.6469 N   0  0  0  0  0  0
  -28.1398    9.8684   10.3726 Cl  0  0  0  0  0  0
  -21.9656   14.8532   16.6464 H   0  0  0  0  0  0
  -21.7872   13.1725   17.1227 H   0  0  0  0  0  0
  -23.2072   13.6872   16.2198 H   0  0  0  0  0  0
  -24.0177   15.0379   18.1362 H   0  0  0  0  0  0
  -24.8514   13.0036   18.1200 H   0  0  0  0  0  0
  -20.6774   14.1159   20.7726 H   0  0  0  0  0  0
  -20.6501   13.3551   19.2153 H   0  0  0  0  0  0
  -20.8924   16.4555   19.8424 H   0  0  0  0  0  0
  -22.2285   16.8602   18.6994 H   0  0  0  0  0  0
  -23.9524   16.0157   20.4069 H   0  0  0  0  0  0
  -22.6224   15.5958   21.5509 H   0  0  0  0  0  0
  -20.8739    7.9029   20.2263 H   0  0  0  0  0  0
  -22.4346    7.2186   19.8130 H   0  0  0  0  0  0
  -21.2419    7.5540   18.5522 H   0  0  0  0  0  0
  -23.2666    7.3232   17.5866 H   0  0  0  0  0  0
  -24.9188    7.6500   15.8338 H   0  0  0  0  0  0
  -25.3396   11.7607   16.8984 H   0  0  0  0  0  0
  -26.8037   10.6759   15.3867 H   0  0  0  0  0  0
  -24.0698    8.6575   13.9536 H   0  0  0  0  0  0
  -24.0100    8.0144   11.5844 H   0  0  0  0  0  0
  -24.4850   13.3229   19.6642 H   0  0  0  0  0  0
  1  2  1  0  0  0
  1 31  1  0  0  0
  1 32  1  0  0  0
  1 33  1  0  0  0
  2  8  1  0  0  0
  2  3  1  0  0  0
  2 34  1  0  0  0
  3  4  1  0  0  0
  3 35  1  0  0  0
  3 51  1  0  0  0
  4 20  1  0  0  0
  4  5  2  0  0  0
  5  6  1  0  0  0
  5 11  1  0  0  0
  6  7  1  0  0  0
  7  8  1  0  0  0
  7 36  1  0  0  0
  7 37  1  0  0  0
  8 10  1  0  0  0
  8  9  1  0  0  0
  9 10  1  0  0  0
  9 38  1  0  0  0
  9 39  1  0  0  0
 10 40  1  0  0  0
 10 41  1  0  0  0
 11 12  2  0  0  0
 11 13  1  0  0  0
 13 14  1  0  0  0
 13 15  1  0  0  0
 14 42  1  0  0  0
 14 43  1  0  0  0
 14 44  1  0  0  0
 15 20  2  0  0  0
 15 16  1  0  0  0
 16 17  2  0  0  0
 16 45  1  0  0  0
 17 18  1  0  0  0
 17 46  1  0  0  0
 18 19  2  0  0  0
 18 21  1  0  0  0
 19 20  1  0  0  0
 19 47  1  0  0  0
 21 22  1  0  0  0
 21 48  1  0  0  0
 22 27  1  0  0  0
 22 23  2  0  0  0
 23 24  1  0  0  0
 23 49  1  0  0  0
 24 25  2  0  0  0
 24 50  1  0  0  0
 25 26  1  0  0  0
 26 27  2  0  0  0
 26 30  1  0  0  0
 27 28  1  0  0  0
 28 29  3  0  0  0
M  CHG  1   3   1
M  END
> <s_m_source_file>
/home/yujie/leadopt/data/result/selection/BCL6/lig_13d.sdf

> <i_m_source_file_index>
1

> <i_lp_mmshare_version>
51139

> <i_f3d_flags>
0

> <s_epik_input>
W0NIMl0xW0NIMl1DMTJbQ0BASF0oW0NIM10pW05IXWMzYyhPW0NIMl0yKWMoPU8pbihbQ0gzXSljNGMzW2NIXWMoW2NIXVtjSF00KVtOSF1jNVtjSF1bY0hdbmMoQ2wpYzVDI04=

> <s_epik_cmdline>
J2VwaWtfcHl0aG9uJywgJy1waHQnLCAnMi4wJywgJy1waCcsICc3LjAnLCAnLXRuJywgJzgnLCAnLW1hJywgJzIwMCcsICctaW1hZScsICc8aW5maWxlLm1hZT4nLCAnLW9tYWUnLCAnPG91dGZpbGUubWFlPic=

> <r_epik_Ionization_Penalty>
  0.5148

> <r_epik_Ionization_Penalty_Charging>
  0.5147

> <r_epik_Ionization_Penalty_Neutral>
  0.0001

> <r_epik_State_Penalty>
  0.5223

> <r_epik_Charging_Adjusted_Penalty>
1.03701

> <i_epik_Tot_Q>
1

> <i_epik_Tot_abs_Q>
1

> <s_lp_Force_Field>
OPLS3e

> <r_lp_Energy>
52.9969

> <b_lp_Chiralities_Consistent>
1

> <s_lp_Variant>
/home/yujie/leadopt/data/result/selection/BCL6/lig_13d.sdf:1-2

> <s_i_glide_gridfile>
glide-grid_BCL6

> <i_i_glide_lignum>
2

> <i_i_glide_rotatable_bonds>
2

> <r_i_docking_score>
-4.8140029524557

> <r_i_glide_ligand_efficiency>
-0.160466765081857

> <r_i_glide_ligand_efficiency_sa>
-0.498607548022319

> <r_i_glide_ligand_efficiency_ln>
-1.09379392356124

> <r_i_glide_gscore>
-5.3362739524557

> <r_i_glide_lipo>
-1.92655683918876

> <r_i_glide_hbond>
-0.256918050474136

> <r_i_glide_metal>
-0

> <r_i_glide_rewards>
-0.97967493511512

> <r_i_glide_evdw>
-32.9238128662109

> <r_i_glide_ecoul>
-4.9902024269104

> <r_i_glide_erotb>
0.221596879669431

> <r_i_glide_esite>
0

> <r_i_glide_emodel>
-49.4500856092103

> <r_i_glide_energy>
-37.9140152931213

> <r_i_glide_einternal>
6.25834846496582

> <i_i_glide_confnum>
7

> <i_i_glide_posenum>
120

> <r_i_glide_eff_state_penalty>
0.522271

$$$$
