@<TRIPOS>MOLECULE
/home/yujie/leadopt/data/result/selection/BCL6/lig_13c.sdf:1
53   56    1
SMALL
USER_CHARGES


@<TRIPOS>ATOM
      1 C1        -22.4049   14.0124   17.2579 C.3       1 UNK         0.0000 
      2 C2        -23.2268   14.2643   18.5477 C.3       1 UNK         0.0000 
      3 N3        -24.0826   13.0184   18.8472 N.4       1 UNK         0.0000 
      4 C4        -23.4308   11.7152   18.9388 C.ar      1 UNK         0.0000 
      5 C5        -22.4725   11.4937   19.8686 C.ar      1 UNK         0.0000 
      6 O6        -22.0939   12.4362   20.7686 O.3       1 UNK         0.0000 
      7 C7        -21.4615   13.6419   20.3432 C.3       1 UNK         0.0000 
      8 C8        -22.4317   14.7328   19.8089 C.3       1 UNK         0.0000 
      9 C9        -21.5999   15.9912   19.4553 C.3       1 UNK         0.0000 
     10 C10       -23.3953   15.1471   20.9525 C.3       1 UNK         0.0000 
     11 C11       -21.7685   10.2225   20.0469 C.ar      1 UNK         0.0000 
     12 O12       -20.8699   10.0951   20.8860 O.2       1 UNK         0.0000 
     13 N13       -22.2063    9.2209   19.2149 N.pl3     1 UNK         0.0000 
     14 C14       -21.5593    7.8986   19.3588 C.3       1 UNK         0.0000 
     15 C15       -23.2071    9.3675   18.1968 C.ar      1 UNK         0.0000 
     16 C16       -23.5848    8.3155   17.3471 C.ar      1 UNK         0.0000 
     17 C17       -24.5173    8.5217   16.3304 C.ar      1 UNK         0.0000 
     18 C18       -25.0925    9.7772   16.1379 C.ar      1 UNK         0.0000 
     19 C19       -24.7841   10.8112   17.0195 C.ar      1 UNK         0.0000 
     20 C20       -23.8333   10.6211   18.0296 C.ar      1 UNK         0.0000 
     21 N21       -25.9699   10.0523   15.0809 N.pl3     1 UNK         0.0000 
     22 C22       -25.9713    9.6287   13.7313 C.ar      1 UNK         0.0000 
     23 C23       -24.8764    8.9229   13.2159 C.ar      1 UNK         0.0000 
     24 C24       -24.8755    8.5366   11.8796 C.ar      1 UNK         0.0000 
     25 N25       -25.8913    8.8239   11.0382 N.ar      1 UNK         0.0000 
     26 C26       -26.9480    9.5284   11.5140 C.ar      1 UNK         0.0000 
     27 C27       -27.0306    9.9601   12.8541 C.ar      1 UNK         0.0000 
     28 C28       -28.1946   10.7298   13.2988 C.1       1 UNK         0.0000 
     29 N29       -29.1151   11.3391   13.6469 N.1       1 UNK         0.0000 
     30 Cl30      -28.2055    9.8447   10.3597 Cl        1 UNK         0.0000 
     31 H31       -21.9263   14.9235   16.9006 H         1 UNK         0.0000 
     32 H32       -23.0393   13.6561   16.4453 H         1 UNK         0.0000 
     33 H33       -21.6238   13.2686   17.4096 H         1 UNK         0.0000 
     34 H34       -23.9999   15.0011   18.3161 H         1 UNK         0.0000 
     35 H35       -24.5624   13.1903   19.7197 H         1 UNK         0.0000 
     36 H36       -20.9174   14.0263   21.2077 H         1 UNK         0.0000 
     37 H37       -20.6900   13.4082   19.6066 H         1 UNK         0.0000 
     38 H38       -21.1184   16.4189   20.3372 H         1 UNK         0.0000 
     39 H39       -22.2211   16.7746   19.0190 H         1 UNK         0.0000 
     40 H40       -20.8018   15.7730   18.7434 H         1 UNK         0.0000 
     41 H41       -22.8550   15.5308   21.8180 H         1 UNK         0.0000 
     42 H42       -23.9970   14.3098   21.3058 H         1 UNK         0.0000 
     43 H43       -24.0855   15.9282   20.6353 H         1 UNK         0.0000 
     44 H44       -21.0982    7.5986   18.4176 H         1 UNK         0.0000 
     45 H45       -22.2989    7.1470   19.6335 H         1 UNK         0.0000 
     46 H46       -20.7709    7.8583   20.1136 H         1 UNK         0.0000 
     47 H47       -23.1528    7.3309   17.4432 H         1 UNK         0.0000 
     48 H48       -24.7919    7.7003   15.6869 H         1 UNK         0.0000 
     49 H49       -25.2514   11.7720   16.8685 H         1 UNK         0.0000 
     50 H50       -26.6809   10.7345   15.3063 H         1 UNK         0.0000 
     51 H51       -24.0116    8.6905   13.8153 H         1 UNK         0.0000 
     52 H52       -24.0393    7.9937   11.4598 H         1 UNK         0.0000 
     53 H53       -24.7977   12.9756   18.1333 H         1 UNK         0.0000 
@<TRIPOS>BOND
     1    1    2 1    
     2    1   31 1    
     3    1   32 1    
     4    1   33 1    
     5    2    8 1    
     6    2    3 1    
     7    2   34 1    
     8    3    4 1    
     9    3   35 1    
    10    3   53 1    
    11    4   20 ar   
    12    4    5 ar   
    13    5    6 1    
    14    5   11 ar   
    15    6    7 1    
    16    7    8 1    
    17    7   36 1    
    18    7   37 1    
    19    8    9 1    
    20    8   10 1    
    21    9   38 1    
    22    9   39 1    
    23    9   40 1    
    24   10   41 1    
    25   10   42 1    
    26   10   43 1    
    27   11   12 2    
    28   11   13 ar   
    29   13   14 1    
    30   13   15 ar   
    31   14   44 1    
    32   14   45 1    
    33   14   46 1    
    34   15   20 ar   
    35   15   16 ar   
    36   16   17 ar   
    37   16   47 1    
    38   17   18 ar   
    39   17   48 1    
    40   18   19 ar   
    41   18   21 1    
    42   19   20 ar   
    43   19   49 1    
    44   21   22 1    
    45   21   50 1    
    46   22   27 ar   
    47   22   23 ar   
    48   23   24 ar   
    49   23   51 1    
    50   24   25 ar   
    51   24   52 1    
    52   25   26 ar   
    53   26   27 ar   
    54   26   30 1    
    55   27   28 1    
    56   28   29 3    
@<TRIPOS>SUBSTRUCTURE
     1 UNK         1 GROUP             0       ****    0 ROOT    
