@<TRIPOS>MOLECULE
/home/yujie/leadopt/data/result/selection/BCL6/lig_9a.sdf:1
46   49    1
SMALL
USER_CHARGES


@<TRIPOS>ATOM
      1 C1        -23.4436   15.7705   18.2227 C.3       1 UNK         0.0000 
      2 C2        -22.9261   14.5923   19.0618 C.3       1 UNK         0.0000 
      3 C3        -22.9031   14.9403   20.5636 C.3       1 UNK         0.0000 
      4 C4        -22.7183   13.7302   21.4892 C.3       1 UNK         0.0000 
      5 O5        -21.8431   12.7475   20.9466 O.3       1 UNK         0.0000 
      6 C6        -22.3079   11.8304   20.0469 C.ar      1 UNK         0.0000 
      7 C7        -23.2303   12.0998   19.0761 C.ar      1 UNK         0.0000 
      8 N8        -23.6828   13.3781   18.7811 N.pl3     1 UNK         0.0000 
      9 C9        -23.7335   10.9757   18.2355 C.ar      1 UNK         0.0000 
     10 C10       -24.6624   11.1658   17.1960 C.ar      1 UNK         0.0000 
     11 C11       -25.0491   10.1063   16.3769 C.ar      1 UNK         0.0000 
     12 C12       -24.5826    8.8231   16.6629 C.ar      1 UNK         0.0000 
     13 C13       -23.6827    8.6119   17.7042 C.ar      1 UNK         0.0000 
     14 C14       -23.2232    9.6838   18.4894 C.ar      1 UNK         0.0000 
     15 N15       -22.2498    9.5092   19.5242 N.pl3     1 UNK         0.0000 
     16 C16       -21.7350    8.1420   19.7548 C.3       1 UNK         0.0000 
     17 C17       -21.7358   10.5094   20.3108 C.ar      1 UNK         0.0000 
     18 O18       -20.8829   10.3286   21.1874 O.2       1 UNK         0.0000 
     19 N19       -25.8849   10.3622   15.2773 N.pl3     1 UNK         0.0000 
     20 C20       -25.8540    9.8355   13.9655 C.ar      1 UNK         0.0000 
     21 C21       -24.7295    9.1171   13.5319 C.ar      1 UNK         0.0000 
     22 C22       -24.6829    8.6271   12.2318 C.ar      1 UNK         0.0000 
     23 N23       -25.6817    8.8211   11.3441 N.ar      1 UNK         0.0000 
     24 C24       -26.7690    9.5285   11.7378 C.ar      1 UNK         0.0000 
     25 C25       -26.8983   10.0621   13.0374 C.ar      1 UNK         0.0000 
     26 C26       -28.0970   10.8267   13.3843 C.1       1 UNK         0.0000 
     27 N27       -29.0478   11.4303   13.6470 N.1       1 UNK         0.0000 
     28 Cl28      -27.9999    9.7212   10.5298 Cl        1 UNK         0.0000 
     29 H29       -21.8994   14.3928   18.7476 H         1 UNK         0.0000 
     30 H30       -22.8512   16.6695   18.3949 H         1 UNK         0.0000 
     31 H31       -24.4825   16.0069   18.4561 H         1 UNK         0.0000 
     32 H32       -23.3928   15.5473   17.1562 H         1 UNK         0.0000 
     33 H33       -22.1006   15.6569   20.7424 H         1 UNK         0.0000 
     34 H34       -23.8262   15.4485   20.8477 H         1 UNK         0.0000 
     35 H35       -22.3183   14.0581   22.4486 H         1 UNK         0.0000 
     36 H36       -23.6832   13.2726   21.7142 H         1 UNK         0.0000 
     37 H37       -24.2377   13.4670   17.9406 H         1 UNK         0.0000 
     38 H38       -25.0486   12.1503   16.9776 H         1 UNK         0.0000 
     39 H39       -24.9097    7.9828   16.0683 H         1 UNK         0.0000 
     40 H40       -23.3403    7.6019   17.8695 H         1 UNK         0.0000 
     41 H41       -20.9619    8.0713   20.5222 H         1 UNK         0.0000 
     42 H42       -21.2969    7.7424   18.8396 H         1 UNK         0.0000 
     43 H43       -22.5467    7.4818   20.0620 H         1 UNK         0.0000 
     44 H44       -26.5760   11.0826   15.4349 H         1 UNK         0.0000 
     45 H45       -23.8795    8.9551   14.1756 H         1 UNK         0.0000 
     46 H46       -23.8241    8.0750   11.8773 H         1 UNK         0.0000 
@<TRIPOS>BOND
     1    1    2 1    
     2    1   30 1    
     3    1   31 1    
     4    1   32 1    
     5    2   29 1    
     6    2    8 1    
     7    2    3 1    
     8    3    4 1    
     9    3   33 1    
    10    3   34 1    
    11    4    5 1    
    12    4   35 1    
    13    4   36 1    
    14    5    6 1    
    15    6   17 ar   
    16    6    7 ar   
    17    7    8 1    
    18    7    9 ar   
    19    8   37 1    
    20    9   14 ar   
    21    9   10 ar   
    22   10   11 ar   
    23   10   38 1    
    24   11   12 ar   
    25   11   19 1    
    26   12   13 ar   
    27   12   39 1    
    28   13   14 ar   
    29   13   40 1    
    30   14   15 ar   
    31   15   16 1    
    32   15   17 ar   
    33   16   41 1    
    34   16   42 1    
    35   16   43 1    
    36   17   18 2    
    37   19   20 1    
    38   19   44 1    
    39   20   25 ar   
    40   20   21 ar   
    41   21   22 ar   
    42   21   45 1    
    43   22   23 ar   
    44   22   46 1    
    45   23   24 ar   
    46   24   25 ar   
    47   24   28 1    
    48   25   26 1    
    49   26   27 3    
@<TRIPOS>SUBSTRUCTURE
     1 UNK         1 GROUP             0       ****    0 ROOT    
