@<TRIPOS>MOLECULE
/home/yujie/leadopt/data/result/selection/BCL6/lig_13d.sdf:1
51   55    1
SMALL
USER_CHARGES


@<TRIPOS>ATOM
      1 C1        -22.5099   13.9815   17.0062 C.3       1 UNK         0.0000 
      2 C2        -23.2431   14.2916   18.3274 C.3       1 UNK         0.0000 
      3 N3        -24.0821   13.0799   18.7703 N.4       1 UNK         0.0000 
      4 C4        -23.4527   11.7663   18.9122 C.ar      1 UNK         0.0000 
      5 C5        -22.4622   11.5725   19.8154 C.ar      1 UNK         0.0000 
      6 O6        -21.9820   12.5715   20.6030 O.3       1 UNK         0.0000 
      7 C7        -21.3251   13.6877   20.0069 C.3       1 UNK         0.0000 
      8 C8        -22.3204   14.7451   19.4804 C.3       1 UNK         0.0000 
      9 C9        -21.8987   16.2031   19.5054 C.3       1 UNK         0.0000 
     10 C10       -22.9127   15.7014   20.5041 C.3       1 UNK         0.0000 
     11 C11       -21.7936   10.2916   20.0481 C.ar      1 UNK         0.0000 
     12 O12       -20.8823   10.1780   20.8752 O.2       1 UNK         0.0000 
     13 N13       -22.2805    9.2602   19.2792 N.pl3     1 UNK         0.0000 
     14 C14       -21.6742    7.9268   19.4820 C.3       1 UNK         0.0000 
     15 C15       -23.2945    9.3833   18.2754 C.ar      1 UNK         0.0000 
     16 C16       -23.6936    8.3068   17.4654 C.ar      1 UNK         0.0000 
     17 C17       -24.6357    8.4882   16.4539 C.ar      1 UNK         0.0000 
     18 C18       -25.2037    9.7438   16.2329 C.ar      1 UNK         0.0000 
     19 C19       -24.8782   10.7989   17.0762 C.ar      1 UNK         0.0000 
     20 C20       -23.9077   10.6375   18.0741 C.ar      1 UNK         0.0000 
     21 N21       -26.0812    9.9986   15.1715 N.pl3     1 UNK         0.0000 
     22 C22       -26.0280    9.5964   13.8171 C.ar      1 UNK         0.0000 
     23 C23       -24.9116    8.8992   13.3264 C.ar      1 UNK         0.0000 
     24 C24       -24.8617    8.5444   11.9856 C.ar      1 UNK         0.0000 
     25 N25       -25.8492    8.8395   11.1130 N.ar      1 UNK         0.0000 
     26 C26       -26.9270    9.5289   11.5624 C.ar      1 UNK         0.0000 
     27 C27       -27.0561    9.9394   12.9054 C.ar      1 UNK         0.0000 
     28 C28       -28.2202   10.7287   13.3221 C.1       1 UNK         0.0000 
     29 N29       -29.1418   11.3493   13.6469 N.1       1 UNK         0.0000 
     30 Cl30      -28.1398    9.8684   10.3726 Cl        1 UNK         0.0000 
     31 H31       -21.9656   14.8532   16.6464 H         1 UNK         0.0000 
     32 H32       -21.7872   13.1725   17.1227 H         1 UNK         0.0000 
     33 H33       -23.2072   13.6872   16.2198 H         1 UNK         0.0000 
     34 H34       -24.0177   15.0379   18.1362 H         1 UNK         0.0000 
     35 H35       -24.8514   13.0036   18.1200 H         1 UNK         0.0000 
     36 H36       -20.6774   14.1159   20.7726 H         1 UNK         0.0000 
     37 H37       -20.6501   13.3551   19.2153 H         1 UNK         0.0000 
     38 H38       -20.8924   16.4555   19.8424 H         1 UNK         0.0000 
     39 H39       -22.2285   16.8602   18.6994 H         1 UNK         0.0000 
     40 H40       -23.9524   16.0157   20.4069 H         1 UNK         0.0000 
     41 H41       -22.6224   15.5958   21.5509 H         1 UNK         0.0000 
     42 H42       -20.8739    7.9029   20.2263 H         1 UNK         0.0000 
     43 H43       -22.4346    7.2186   19.8130 H         1 UNK         0.0000 
     44 H44       -21.2419    7.5540   18.5522 H         1 UNK         0.0000 
     45 H45       -23.2666    7.3232   17.5866 H         1 UNK         0.0000 
     46 H46       -24.9188    7.6500   15.8338 H         1 UNK         0.0000 
     47 H47       -25.3396   11.7607   16.8984 H         1 UNK         0.0000 
     48 H48       -26.8037   10.6759   15.3867 H         1 UNK         0.0000 
     49 H49       -24.0698    8.6575   13.9536 H         1 UNK         0.0000 
     50 H50       -24.0100    8.0144   11.5844 H         1 UNK         0.0000 
     51 H51       -24.4850   13.3229   19.6642 H         1 UNK         0.0000 
@<TRIPOS>BOND
     1    1    2 1    
     2    1   31 1    
     3    1   32 1    
     4    1   33 1    
     5    2    8 1    
     6    2    3 1    
     7    2   34 1    
     8    3    4 1    
     9    3   35 1    
    10    3   51 1    
    11    4   20 ar   
    12    4    5 ar   
    13    5    6 1    
    14    5   11 ar   
    15    6    7 1    
    16    7    8 1    
    17    7   36 1    
    18    7   37 1    
    19    8   10 1    
    20    8    9 1    
    21    9   10 1    
    22    9   38 1    
    23    9   39 1    
    24   10   40 1    
    25   10   41 1    
    26   11   12 2    
    27   11   13 ar   
    28   13   14 1    
    29   13   15 ar   
    30   14   42 1    
    31   14   43 1    
    32   14   44 1    
    33   15   20 ar   
    34   15   16 ar   
    35   16   17 ar   
    36   16   45 1    
    37   17   18 ar   
    38   17   46 1    
    39   18   19 ar   
    40   18   21 1    
    41   19   20 ar   
    42   19   47 1    
    43   21   22 1    
    44   21   48 1    
    45   22   27 ar   
    46   22   23 ar   
    47   23   24 ar   
    48   23   49 1    
    49   24   25 ar   
    50   24   50 1    
    51   25   26 ar   
    52   26   27 ar   
    53   26   30 1    
    54   27   28 1    
    55   28   29 3    
@<TRIPOS>SUBSTRUCTURE
     1 UNK         1 GROUP             0       ****    0 ROOT    
