@<TRIPOS>MOLECULE
/home/yujie/leadopt/data/result/selection/BCL6/lig_11e.sdf:1
46   49    1
SMALL
USER_CHARGES


@<TRIPOS>ATOM
      1 C1        -21.7052    8.1255   19.7060 C.3       1 UNK         0.0000 
      2 N2        -22.2359    9.4863   19.4702 N.pl3     1 UNK         0.0000 
      3 C3        -21.7333   10.4955   20.2531 C.ar      1 UNK         0.0000 
      4 O4        -20.8829   10.3278   21.1348 O.2       1 UNK         0.0000 
      5 C5        -22.3095   11.8116   19.9769 C.ar      1 UNK         0.0000 
      6 C6        -23.2332   12.0690   19.0047 C.ar      1 UNK         0.0000 
      7 N7        -23.6831   13.3435   18.6905 N.pl3     1 UNK         0.0000 
      8 C8        -22.9353   14.5651   18.9755 C.3       1 UNK         0.0000 
      9 C9        -22.9383   14.9143   20.4810 C.3       1 UNK         0.0000 
     10 C10       -22.7294   13.7112   21.4114 C.3       1 UNK         0.0000 
     11 O11       -21.8456   12.7403   20.8618 O.3       1 UNK         0.0000 
     12 C12       -23.4191   15.7421   18.1024 C.3       1 UNK         0.0000 
     13 F13       -23.2821   15.4961   16.7994 F         1 UNK         0.0000 
     14 F14       -22.7871   16.8834   18.3771 F         1 UNK         0.0000 
     15 C15       -23.7331   10.9351   18.1776 C.ar      1 UNK         0.0000 
     16 C16       -24.6720   11.1122   17.1455 C.ar      1 UNK         0.0000 
     17 C17       -25.0577   10.0438   16.3385 C.ar      1 UNK         0.0000 
     18 C18       -24.5808    8.7652   16.6270 C.ar      1 UNK         0.0000 
     19 C19       -23.6713    8.5676   17.6623 C.ar      1 UNK         0.0000 
     20 C20       -23.2139    9.6478   18.4377 C.ar      1 UNK         0.0000 
     21 N21       -25.9063   10.2919   15.2482 N.pl3     1 UNK         0.0000 
     22 C22       -25.8741    9.7801   13.9307 C.ar      1 UNK         0.0000 
     23 C23       -24.7499    9.0664   13.4891 C.ar      1 UNK         0.0000 
     24 C24       -24.7066    8.5890   12.1846 C.ar      1 UNK         0.0000 
     25 N25       -25.7031    8.7973   11.2986 N.ar      1 UNK         0.0000 
     26 C26       -26.7891    9.5040   11.6993 C.ar      1 UNK         0.0000 
     27 C27       -26.9188   10.0192   13.0060 C.ar      1 UNK         0.0000 
     28 C28       -28.1187   10.7758   13.3684 C.1       1 UNK         0.0000 
     29 N29       -29.0691   11.3735   13.6473 N.1       1 UNK         0.0000 
     30 Cl30      -28.0204    9.7131   10.4945 Cl        1 UNK         0.0000 
     31 H31       -20.9230    8.0685   20.4650 H         1 UNK         0.0000 
     32 H32       -21.2713    7.7230   18.7890 H         1 UNK         0.0000 
     33 H33       -22.5079    7.4590   20.0254 H         1 UNK         0.0000 
     34 H34       -24.2205   13.4175   17.8361 H         1 UNK         0.0000 
     35 H35       -21.9015   14.3657   18.6867 H         1 UNK         0.0000 
     36 H36       -22.1559   15.6494   20.6701 H         1 UNK         0.0000 
     37 H37       -23.8747   15.4008   20.7541 H         1 UNK         0.0000 
     38 H38       -22.3234   14.0485   22.3660 H         1 UNK         0.0000 
     39 H39       -23.6848   13.2395   21.6481 H         1 UNK         0.0000 
     40 H40       -24.4796   15.9362   18.2687 H         1 UNK         0.0000 
     41 H41       -25.0692   12.0919   16.9214 H         1 UNK         0.0000 
     42 H42       -24.9074    7.9206   16.0404 H         1 UNK         0.0000 
     43 H43       -23.3180    7.5620   17.8325 H         1 UNK         0.0000 
     44 H44       -26.5889   11.0193   15.4067 H         1 UNK         0.0000 
     45 H45       -23.9012    8.8951   14.1321 H         1 UNK         0.0000 
     46 H46       -23.8481    8.0391   11.8245 H         1 UNK         0.0000 
@<TRIPOS>BOND
     1    1    2 1    
     2    1   31 1    
     3    1   32 1    
     4    1   33 1    
     5    2   20 ar   
     6    2    3 ar   
     7    3    4 2    
     8    3    5 ar   
     9    5   11 1    
    10    5    6 ar   
    11    6    7 1    
    12    6   15 ar   
    13    7    8 1    
    14    7   34 1    
    15    8    9 1    
    16    8   12 1    
    17    8   35 1    
    18    9   10 1    
    19    9   36 1    
    20    9   37 1    
    21   10   11 1    
    22   10   38 1    
    23   10   39 1    
    24   12   13 1    
    25   12   14 1    
    26   12   40 1    
    27   15   20 ar   
    28   15   16 ar   
    29   16   17 ar   
    30   16   41 1    
    31   17   18 ar   
    32   17   21 1    
    33   18   19 ar   
    34   18   42 1    
    35   19   20 ar   
    36   19   43 1    
    37   21   22 1    
    38   21   44 1    
    39   22   27 ar   
    40   22   23 ar   
    41   23   24 ar   
    42   23   45 1    
    43   24   25 ar   
    44   24   46 1    
    45   25   26 ar   
    46   26   27 ar   
    47   26   30 1    
    48   27   28 1    
    49   28   29 3    
@<TRIPOS>SUBSTRUCTURE
     1 UNK         1 GROUP             0       ****    0 ROOT    
